! Program Version,EnergyPlus, Version 9.6.0-316f894e91, YMD=2026.02.17 17:11,
! Output:Meter Objects (applicable to this run)
Output:Meter,Electricity:Facility,hourly; !- [J]
Output:Meter:Cumulative,Electricity:Facility,hourly; !- [J]
Output:Meter,ExteriorLights:Electricity,hourly; !- [J]
Output:Meter:Cumulative,ExteriorLights:Electricity,hourly; !- [J]
Output:Meter,General:ExteriorLights:Electricity,hourly; !- [J]
Output:Meter:Cumulative,General:ExteriorLights:Electricity,hourly; !- [J]
Output:Meter,Electricity:Building,hourly; !- [J]
Output:Meter:Cumulative,Electricity:Building,hourly; !- [J]
Output:Meter,Electricity:Zone:ACTIVESTORAGE_BOT_1 ZN,hourly; !- [J]
Output:Meter:Cumulative,Electricity:Zone:ACTIVESTORAGE_BOT_1 ZN,hourly; !- [J]
Output:Meter,Electricity:SpaceType:GENERAL,hourly; !- [J]
Output:Meter:Cumulative,Electricity:SpaceType:GENERAL,hourly; !- [J]
Output:Meter,InteriorLights:Electricity,hourly; !- [J]
Output:Meter:Cumulative,InteriorLights:Electricity,hourly; !- [J]
Output:Meter,InteriorLights:Electricity:Zone:ACTIVESTORAGE_BOT_1 ZN,hourly; !- [J]
Output:Meter:Cumulative,InteriorLights:Electricity:Zone:ACTIVESTORAGE_BOT_1 ZN,hourly; !- [J]
Output:Meter,InteriorLights:Electricity:SpaceType:GENERAL,hourly; !- [J]
Output:Meter:Cumulative,InteriorLights:Electricity:SpaceType:GENERAL,hourly; !- [J]
Output:Meter,LightsWired:InteriorLights:Electricity,hourly; !- [J]
Output:Meter:Cumulative,LightsWired:InteriorLights:Electricity,hourly; !- [J]
Output:Meter,LightsWired:InteriorLights:Electricity:Zone:ACTIVESTORAGE_BOT_1 ZN,hourly; !- [J]
Output:Meter:Cumulative,LightsWired:InteriorLights:Electricity:Zone:ACTIVESTORAGE_BOT_1 ZN,hourly; !- [J]
Output:Meter,LightsWired:InteriorLights:Electricity:SpaceType:GENERAL,hourly; !- [J]
Output:Meter:Cumulative,LightsWired:InteriorLights:Electricity:SpaceType:GENERAL,hourly; !- [J]
Output:Meter,Electricity:Zone:ACTIVESTORAGE_BOT_2 ZN,hourly; !- [J]
Output:Meter:Cumulative,Electricity:Zone:ACTIVESTORAGE_BOT_2 ZN,hourly; !- [J]
Output:Meter,InteriorLights:Electricity:Zone:ACTIVESTORAGE_BOT_2 ZN,hourly; !- [J]
Output:Meter:Cumulative,InteriorLights:Electricity:Zone:ACTIVESTORAGE_BOT_2 ZN,hourly; !- [J]
Output:Meter,LightsWired:InteriorLights:Electricity:Zone:ACTIVESTORAGE_BOT_2 ZN,hourly; !- [J]
Output:Meter:Cumulative,LightsWired:InteriorLights:Electricity:Zone:ACTIVESTORAGE_BOT_2 ZN,hourly; !- [J]
Output:Meter,Electricity:Zone:ACTIVESTORAGE_BOT_3 ZN,hourly; !- [J]
Output:Meter:Cumulative,Electricity:Zone:ACTIVESTORAGE_BOT_3 ZN,hourly; !- [J]
Output:Meter,InteriorLights:Electricity:Zone:ACTIVESTORAGE_BOT_3 ZN,hourly; !- [J]
Output:Meter:Cumulative,InteriorLights:Electricity:Zone:ACTIVESTORAGE_BOT_3 ZN,hourly; !- [J]
Output:Meter,LightsWired:InteriorLights:Electricity:Zone:ACTIVESTORAGE_BOT_3 ZN,hourly; !- [J]
Output:Meter:Cumulative,LightsWired:InteriorLights:Electricity:Zone:ACTIVESTORAGE_BOT_3 ZN,hourly; !- [J]
Output:Meter,Electricity:Zone:ACTIVESTORAGE_BOT_4 ZN,hourly; !- [J]
Output:Meter:Cumulative,Electricity:Zone:ACTIVESTORAGE_BOT_4 ZN,hourly; !- [J]
Output:Meter,InteriorLights:Electricity:Zone:ACTIVESTORAGE_BOT_4 ZN,hourly; !- [J]
Output:Meter:Cumulative,InteriorLights:Electricity:Zone:ACTIVESTORAGE_BOT_4 ZN,hourly; !- [J]
Output:Meter,LightsWired:InteriorLights:Electricity:Zone:ACTIVESTORAGE_BOT_4 ZN,hourly; !- [J]
Output:Meter:Cumulative,LightsWired:InteriorLights:Electricity:Zone:ACTIVESTORAGE_BOT_4 ZN,hourly; !- [J]
Output:Meter,Electricity:Zone:ACTIVESTORAGE_MID_1 ZN,hourly; !- [J]
Output:Meter:Cumulative,Electricity:Zone:ACTIVESTORAGE_MID_1 ZN,hourly; !- [J]
Output:Meter,InteriorLights:Electricity:Zone:ACTIVESTORAGE_MID_1 ZN,hourly; !- [J]
Output:Meter:Cumulative,InteriorLights:Electricity:Zone:ACTIVESTORAGE_MID_1 ZN,hourly; !- [J]
Output:Meter,LightsWired:InteriorLights:Electricity:Zone:ACTIVESTORAGE_MID_1 ZN,hourly; !- [J]
Output:Meter:Cumulative,LightsWired:InteriorLights:Electricity:Zone:ACTIVESTORAGE_MID_1 ZN,hourly; !- [J]
Output:Meter,Electricity:Zone:ACTIVESTORAGE_MID_2 ZN,hourly; !- [J]
Output:Meter:Cumulative,Electricity:Zone:ACTIVESTORAGE_MID_2 ZN,hourly; !- [J]
Output:Meter,InteriorLights:Electricity:Zone:ACTIVESTORAGE_MID_2 ZN,hourly; !- [J]
Output:Meter:Cumulative,InteriorLights:Electricity:Zone:ACTIVESTORAGE_MID_2 ZN,hourly; !- [J]
Output:Meter,LightsWired:InteriorLights:Electricity:Zone:ACTIVESTORAGE_MID_2 ZN,hourly; !- [J]
Output:Meter:Cumulative,LightsWired:InteriorLights:Electricity:Zone:ACTIVESTORAGE_MID_2 ZN,hourly; !- [J]
Output:Meter,Electricity:Zone:ACTIVESTORAGE_MID_3 ZN,hourly; !- [J]
Output:Meter:Cumulative,Electricity:Zone:ACTIVESTORAGE_MID_3 ZN,hourly; !- [J]
Output:Meter,InteriorLights:Electricity:Zone:ACTIVESTORAGE_MID_3 ZN,hourly; !- [J]
Output:Meter:Cumulative,InteriorLights:Electricity:Zone:ACTIVESTORAGE_MID_3 ZN,hourly; !- [J]
Output:Meter,LightsWired:InteriorLights:Electricity:Zone:ACTIVESTORAGE_MID_3 ZN,hourly; !- [J]
Output:Meter:Cumulative,LightsWired:InteriorLights:Electricity:Zone:ACTIVESTORAGE_MID_3 ZN,hourly; !- [J]
Output:Meter,Electricity:Zone:ACTIVESTORAGE_MID_4 ZN,hourly; !- [J]
Output:Meter:Cumulative,Electricity:Zone:ACTIVESTORAGE_MID_4 ZN,hourly; !- [J]
Output:Meter,InteriorLights:Electricity:Zone:ACTIVESTORAGE_MID_4 ZN,hourly; !- [J]
Output:Meter:Cumulative,InteriorLights:Electricity:Zone:ACTIVESTORAGE_MID_4 ZN,hourly; !- [J]
Output:Meter,LightsWired:InteriorLights:Electricity:Zone:ACTIVESTORAGE_MID_4 ZN,hourly; !- [J]
Output:Meter:Cumulative,LightsWired:InteriorLights:Electricity:Zone:ACTIVESTORAGE_MID_4 ZN,hourly; !- [J]
Output:Meter,Electricity:Zone:ACTIVESTORAGE_TOP_1 ZN,hourly; !- [J]
Output:Meter:Cumulative,Electricity:Zone:ACTIVESTORAGE_TOP_1 ZN,hourly; !- [J]
Output:Meter,InteriorLights:Electricity:Zone:ACTIVESTORAGE_TOP_1 ZN,hourly; !- [J]
Output:Meter:Cumulative,InteriorLights:Electricity:Zone:ACTIVESTORAGE_TOP_1 ZN,hourly; !- [J]
Output:Meter,LightsWired:InteriorLights:Electricity:Zone:ACTIVESTORAGE_TOP_1 ZN,hourly; !- [J]
Output:Meter:Cumulative,LightsWired:InteriorLights:Electricity:Zone:ACTIVESTORAGE_TOP_1 ZN,hourly; !- [J]
Output:Meter,Electricity:Zone:ACTIVESTORAGE_TOP_2 ZN,hourly; !- [J]
Output:Meter:Cumulative,Electricity:Zone:ACTIVESTORAGE_TOP_2 ZN,hourly; !- [J]
Output:Meter,InteriorLights:Electricity:Zone:ACTIVESTORAGE_TOP_2 ZN,hourly; !- [J]
Output:Meter:Cumulative,InteriorLights:Electricity:Zone:ACTIVESTORAGE_TOP_2 ZN,hourly; !- [J]
Output:Meter,LightsWired:InteriorLights:Electricity:Zone:ACTIVESTORAGE_TOP_2 ZN,hourly; !- [J]
Output:Meter:Cumulative,LightsWired:InteriorLights:Electricity:Zone:ACTIVESTORAGE_TOP_2 ZN,hourly; !- [J]
Output:Meter,Electricity:Zone:ACTIVESTORAGE_TOP_3 ZN,hourly; !- [J]
Output:Meter:Cumulative,Electricity:Zone:ACTIVESTORAGE_TOP_3 ZN,hourly; !- [J]
Output:Meter,InteriorLights:Electricity:Zone:ACTIVESTORAGE_TOP_3 ZN,hourly; !- [J]
Output:Meter:Cumulative,InteriorLights:Electricity:Zone:ACTIVESTORAGE_TOP_3 ZN,hourly; !- [J]
Output:Meter,LightsWired:InteriorLights:Electricity:Zone:ACTIVESTORAGE_TOP_3 ZN,hourly; !- [J]
Output:Meter:Cumulative,LightsWired:InteriorLights:Electricity:Zone:ACTIVESTORAGE_TOP_3 ZN,hourly; !- [J]
Output:Meter,Electricity:Zone:ACTIVESTORAGE_TOP_4 ZN,hourly; !- [J]
Output:Meter:Cumulative,Electricity:Zone:ACTIVESTORAGE_TOP_4 ZN,hourly; !- [J]
Output:Meter,InteriorLights:Electricity:Zone:ACTIVESTORAGE_TOP_4 ZN,hourly; !- [J]
Output:Meter:Cumulative,InteriorLights:Electricity:Zone:ACTIVESTORAGE_TOP_4 ZN,hourly; !- [J]
Output:Meter,LightsWired:InteriorLights:Electricity:Zone:ACTIVESTORAGE_TOP_4 ZN,hourly; !- [J]
Output:Meter:Cumulative,LightsWired:InteriorLights:Electricity:Zone:ACTIVESTORAGE_TOP_4 ZN,hourly; !- [J]
Output:Meter,Electricity:Zone:CLASSROOM_BOT ZN,hourly; !- [J]
Output:Meter:Cumulative,Electricity:Zone:CLASSROOM_BOT ZN,hourly; !- [J]
Output:Meter,InteriorLights:Electricity:Zone:CLASSROOM_BOT ZN,hourly; !- [J]
Output:Meter:Cumulative,InteriorLights:Electricity:Zone:CLASSROOM_BOT ZN,hourly; !- [J]
Output:Meter,LightsWired:InteriorLights:Electricity:Zone:CLASSROOM_BOT ZN,hourly; !- [J]
Output:Meter:Cumulative,LightsWired:InteriorLights:Electricity:Zone:CLASSROOM_BOT ZN,hourly; !- [J]
Output:Meter,Electricity:Zone:CONFROOM_BOT_1 ZN,hourly; !- [J]
Output:Meter:Cumulative,Electricity:Zone:CONFROOM_BOT_1 ZN,hourly; !- [J]
Output:Meter,InteriorLights:Electricity:Zone:CONFROOM_BOT_1 ZN,hourly; !- [J]
Output:Meter:Cumulative,InteriorLights:Electricity:Zone:CONFROOM_BOT_1 ZN,hourly; !- [J]
Output:Meter,LightsWired:InteriorLights:Electricity:Zone:CONFROOM_BOT_1 ZN,hourly; !- [J]
Output:Meter:Cumulative,LightsWired:InteriorLights:Electricity:Zone:CONFROOM_BOT_1 ZN,hourly; !- [J]
Output:Meter,Electricity:Zone:CONFROOM_BOT_2 ZN,hourly; !- [J]
Output:Meter:Cumulative,Electricity:Zone:CONFROOM_BOT_2 ZN,hourly; !- [J]
Output:Meter,InteriorLights:Electricity:Zone:CONFROOM_BOT_2 ZN,hourly; !- [J]
Output:Meter:Cumulative,InteriorLights:Electricity:Zone:CONFROOM_BOT_2 ZN,hourly; !- [J]
Output:Meter,LightsWired:InteriorLights:Electricity:Zone:CONFROOM_BOT_2 ZN,hourly; !- [J]
Output:Meter:Cumulative,LightsWired:InteriorLights:Electricity:Zone:CONFROOM_BOT_2 ZN,hourly; !- [J]
Output:Meter,Electricity:Zone:CONFROOM_MID_1 ZN,hourly; !- [J]
Output:Meter:Cumulative,Electricity:Zone:CONFROOM_MID_1 ZN,hourly; !- [J]
Output:Meter,InteriorLights:Electricity:Zone:CONFROOM_MID_1 ZN,hourly; !- [J]
Output:Meter:Cumulative,InteriorLights:Electricity:Zone:CONFROOM_MID_1 ZN,hourly; !- [J]
Output:Meter,LightsWired:InteriorLights:Electricity:Zone:CONFROOM_MID_1 ZN,hourly; !- [J]
Output:Meter:Cumulative,LightsWired:InteriorLights:Electricity:Zone:CONFROOM_MID_1 ZN,hourly; !- [J]
Output:Meter,Electricity:Zone:CONFROOM_MID_2 ZN,hourly; !- [J]
Output:Meter:Cumulative,Electricity:Zone:CONFROOM_MID_2 ZN,hourly; !- [J]
Output:Meter,InteriorLights:Electricity:Zone:CONFROOM_MID_2 ZN,hourly; !- [J]
Output:Meter:Cumulative,InteriorLights:Electricity:Zone:CONFROOM_MID_2 ZN,hourly; !- [J]
Output:Meter,LightsWired:InteriorLights:Electricity:Zone:CONFROOM_MID_2 ZN,hourly; !- [J]
Output:Meter:Cumulative,LightsWired:InteriorLights:Electricity:Zone:CONFROOM_MID_2 ZN,hourly; !- [J]
Output:Meter,Electricity:Zone:CONFROOM_TOP_1 ZN,hourly; !- [J]
Output:Meter:Cumulative,Electricity:Zone:CONFROOM_TOP_1 ZN,hourly; !- [J]
Output:Meter,InteriorLights:Electricity:Zone:CONFROOM_TOP_1 ZN,hourly; !- [J]
Output:Meter:Cumulative,InteriorLights:Electricity:Zone:CONFROOM_TOP_1 ZN,hourly; !- [J]
Output:Meter,LightsWired:InteriorLights:Electricity:Zone:CONFROOM_TOP_1 ZN,hourly; !- [J]
Output:Meter:Cumulative,LightsWired:InteriorLights:Electricity:Zone:CONFROOM_TOP_1 ZN,hourly; !- [J]
Output:Meter,Electricity:Zone:CONFROOM_TOP_2 ZN,hourly; !- [J]
Output:Meter:Cumulative,Electricity:Zone:CONFROOM_TOP_2 ZN,hourly; !- [J]
Output:Meter,InteriorLights:Electricity:Zone:CONFROOM_TOP_2 ZN,hourly; !- [J]
Output:Meter:Cumulative,InteriorLights:Electricity:Zone:CONFROOM_TOP_2 ZN,hourly; !- [J]
Output:Meter,LightsWired:InteriorLights:Electricity:Zone:CONFROOM_TOP_2 ZN,hourly; !- [J]
Output:Meter:Cumulative,LightsWired:InteriorLights:Electricity:Zone:CONFROOM_TOP_2 ZN,hourly; !- [J]
Output:Meter,Electricity:Zone:CORRIDOR_BOT_1 ZN,hourly; !- [J]
Output:Meter:Cumulative,Electricity:Zone:CORRIDOR_BOT_1 ZN,hourly; !- [J]
Output:Meter,InteriorLights:Electricity:Zone:CORRIDOR_BOT_1 ZN,hourly; !- [J]
Output:Meter:Cumulative,InteriorLights:Electricity:Zone:CORRIDOR_BOT_1 ZN,hourly; !- [J]
Output:Meter,LightsWired:InteriorLights:Electricity:Zone:CORRIDOR_BOT_1 ZN,hourly; !- [J]
Output:Meter:Cumulative,LightsWired:InteriorLights:Electricity:Zone:CORRIDOR_BOT_1 ZN,hourly; !- [J]
Output:Meter,Electricity:Zone:CORRIDOR_BOT_2 ZN,hourly; !- [J]
Output:Meter:Cumulative,Electricity:Zone:CORRIDOR_BOT_2 ZN,hourly; !- [J]
Output:Meter,InteriorLights:Electricity:Zone:CORRIDOR_BOT_2 ZN,hourly; !- [J]
Output:Meter:Cumulative,InteriorLights:Electricity:Zone:CORRIDOR_BOT_2 ZN,hourly; !- [J]
Output:Meter,LightsWired:InteriorLights:Electricity:Zone:CORRIDOR_BOT_2 ZN,hourly; !- [J]
Output:Meter:Cumulative,LightsWired:InteriorLights:Electricity:Zone:CORRIDOR_BOT_2 ZN,hourly; !- [J]
Output:Meter,Electricity:Zone:CORRIDOR_MID_1 ZN,hourly; !- [J]
Output:Meter:Cumulative,Electricity:Zone:CORRIDOR_MID_1 ZN,hourly; !- [J]
Output:Meter,InteriorLights:Electricity:Zone:CORRIDOR_MID_1 ZN,hourly; !- [J]
Output:Meter:Cumulative,InteriorLights:Electricity:Zone:CORRIDOR_MID_1 ZN,hourly; !- [J]
Output:Meter,LightsWired:InteriorLights:Electricity:Zone:CORRIDOR_MID_1 ZN,hourly; !- [J]
Output:Meter:Cumulative,LightsWired:InteriorLights:Electricity:Zone:CORRIDOR_MID_1 ZN,hourly; !- [J]
Output:Meter,Electricity:Zone:CORRIDOR_MID_2 ZN,hourly; !- [J]
Output:Meter:Cumulative,Electricity:Zone:CORRIDOR_MID_2 ZN,hourly; !- [J]
Output:Meter,InteriorLights:Electricity:Zone:CORRIDOR_MID_2 ZN,hourly; !- [J]
Output:Meter:Cumulative,InteriorLights:Electricity:Zone:CORRIDOR_MID_2 ZN,hourly; !- [J]
Output:Meter,LightsWired:InteriorLights:Electricity:Zone:CORRIDOR_MID_2 ZN,hourly; !- [J]
Output:Meter:Cumulative,LightsWired:InteriorLights:Electricity:Zone:CORRIDOR_MID_2 ZN,hourly; !- [J]
Output:Meter,Electricity:Zone:CORRIDOR_TOP_1 ZN,hourly; !- [J]
Output:Meter:Cumulative,Electricity:Zone:CORRIDOR_TOP_1 ZN,hourly; !- [J]
Output:Meter,InteriorLights:Electricity:Zone:CORRIDOR_TOP_1 ZN,hourly; !- [J]
Output:Meter:Cumulative,InteriorLights:Electricity:Zone:CORRIDOR_TOP_1 ZN,hourly; !- [J]
Output:Meter,LightsWired:InteriorLights:Electricity:Zone:CORRIDOR_TOP_1 ZN,hourly; !- [J]
Output:Meter:Cumulative,LightsWired:InteriorLights:Electricity:Zone:CORRIDOR_TOP_1 ZN,hourly; !- [J]
Output:Meter,Electricity:Zone:CORRIDOR_TOP_2 ZN,hourly; !- [J]
Output:Meter:Cumulative,Electricity:Zone:CORRIDOR_TOP_2 ZN,hourly; !- [J]
Output:Meter,InteriorLights:Electricity:Zone:CORRIDOR_TOP_2 ZN,hourly; !- [J]
Output:Meter:Cumulative,InteriorLights:Electricity:Zone:CORRIDOR_TOP_2 ZN,hourly; !- [J]
Output:Meter,LightsWired:InteriorLights:Electricity:Zone:CORRIDOR_TOP_2 ZN,hourly; !- [J]
Output:Meter:Cumulative,LightsWired:InteriorLights:Electricity:Zone:CORRIDOR_TOP_2 ZN,hourly; !- [J]
Output:Meter,Electricity:Zone:DINING_BOT ZN,hourly; !- [J]
Output:Meter:Cumulative,Electricity:Zone:DINING_BOT ZN,hourly; !- [J]
Output:Meter,InteriorLights:Electricity:Zone:DINING_BOT ZN,hourly; !- [J]
Output:Meter:Cumulative,InteriorLights:Electricity:Zone:DINING_BOT ZN,hourly; !- [J]
Output:Meter,LightsWired:InteriorLights:Electricity:Zone:DINING_BOT ZN,hourly; !- [J]
Output:Meter:Cumulative,LightsWired:InteriorLights:Electricity:Zone:DINING_BOT ZN,hourly; !- [J]
Output:Meter,Electricity:Zone:DINING_MID ZN,hourly; !- [J]
Output:Meter:Cumulative,Electricity:Zone:DINING_MID ZN,hourly; !- [J]
Output:Meter,InteriorLights:Electricity:Zone:DINING_MID ZN,hourly; !- [J]
Output:Meter:Cumulative,InteriorLights:Electricity:Zone:DINING_MID ZN,hourly; !- [J]
Output:Meter,LightsWired:InteriorLights:Electricity:Zone:DINING_MID ZN,hourly; !- [J]
Output:Meter:Cumulative,LightsWired:InteriorLights:Electricity:Zone:DINING_MID ZN,hourly; !- [J]
Output:Meter,Electricity:Zone:DINING_TOP ZN,hourly; !- [J]
Output:Meter:Cumulative,Electricity:Zone:DINING_TOP ZN,hourly; !- [J]
Output:Meter,InteriorLights:Electricity:Zone:DINING_TOP ZN,hourly; !- [J]
Output:Meter:Cumulative,InteriorLights:Electricity:Zone:DINING_TOP ZN,hourly; !- [J]
Output:Meter,LightsWired:InteriorLights:Electricity:Zone:DINING_TOP ZN,hourly; !- [J]
Output:Meter:Cumulative,LightsWired:InteriorLights:Electricity:Zone:DINING_TOP ZN,hourly; !- [J]
Output:Meter,Electricity:Zone:ENCLOSEDOFFICE_BOT_1 ZN,hourly; !- [J]
Output:Meter:Cumulative,Electricity:Zone:ENCLOSEDOFFICE_BOT_1 ZN,hourly; !- [J]
Output:Meter,InteriorLights:Electricity:Zone:ENCLOSEDOFFICE_BOT_1 ZN,hourly; !- [J]
Output:Meter:Cumulative,InteriorLights:Electricity:Zone:ENCLOSEDOFFICE_BOT_1 ZN,hourly; !- [J]
Output:Meter,LightsWired:InteriorLights:Electricity:Zone:ENCLOSEDOFFICE_BOT_1 ZN,hourly; !- [J]
Output:Meter:Cumulative,LightsWired:InteriorLights:Electricity:Zone:ENCLOSEDOFFICE_BOT_1 ZN,hourly; !- [J]
Output:Meter,Electricity:Zone:ENCLOSEDOFFICE_BOT_2 ZN,hourly; !- [J]
Output:Meter:Cumulative,Electricity:Zone:ENCLOSEDOFFICE_BOT_2 ZN,hourly; !- [J]
Output:Meter,InteriorLights:Electricity:Zone:ENCLOSEDOFFICE_BOT_2 ZN,hourly; !- [J]
Output:Meter:Cumulative,InteriorLights:Electricity:Zone:ENCLOSEDOFFICE_BOT_2 ZN,hourly; !- [J]
Output:Meter,LightsWired:InteriorLights:Electricity:Zone:ENCLOSEDOFFICE_BOT_2 ZN,hourly; !- [J]
Output:Meter:Cumulative,LightsWired:InteriorLights:Electricity:Zone:ENCLOSEDOFFICE_BOT_2 ZN,hourly; !- [J]
Output:Meter,Electricity:Zone:ENCLOSEDOFFICE_BOT_3 ZN,hourly; !- [J]
Output:Meter:Cumulative,Electricity:Zone:ENCLOSEDOFFICE_BOT_3 ZN,hourly; !- [J]
Output:Meter,InteriorLights:Electricity:Zone:ENCLOSEDOFFICE_BOT_3 ZN,hourly; !- [J]
Output:Meter:Cumulative,InteriorLights:Electricity:Zone:ENCLOSEDOFFICE_BOT_3 ZN,hourly; !- [J]
Output:Meter,LightsWired:InteriorLights:Electricity:Zone:ENCLOSEDOFFICE_BOT_3 ZN,hourly; !- [J]
Output:Meter:Cumulative,LightsWired:InteriorLights:Electricity:Zone:ENCLOSEDOFFICE_BOT_3 ZN,hourly; !- [J]
Output:Meter,Electricity:Zone:ENCLOSEDOFFICE_BOT_4 ZN,hourly; !- [J]
Output:Meter:Cumulative,Electricity:Zone:ENCLOSEDOFFICE_BOT_4 ZN,hourly; !- [J]
Output:Meter,InteriorLights:Electricity:Zone:ENCLOSEDOFFICE_BOT_4 ZN,hourly; !- [J]
Output:Meter:Cumulative,InteriorLights:Electricity:Zone:ENCLOSEDOFFICE_BOT_4 ZN,hourly; !- [J]
Output:Meter,LightsWired:InteriorLights:Electricity:Zone:ENCLOSEDOFFICE_BOT_4 ZN,hourly; !- [J]
Output:Meter:Cumulative,LightsWired:InteriorLights:Electricity:Zone:ENCLOSEDOFFICE_BOT_4 ZN,hourly; !- [J]
Output:Meter,Electricity:Zone:ENCLOSEDOFFICE_BOT_5 ZN,hourly; !- [J]
Output:Meter:Cumulative,Electricity:Zone:ENCLOSEDOFFICE_BOT_5 ZN,hourly; !- [J]
Output:Meter,InteriorLights:Electricity:Zone:ENCLOSEDOFFICE_BOT_5 ZN,hourly; !- [J]
Output:Meter:Cumulative,InteriorLights:Electricity:Zone:ENCLOSEDOFFICE_BOT_5 ZN,hourly; !- [J]
Output:Meter,LightsWired:InteriorLights:Electricity:Zone:ENCLOSEDOFFICE_BOT_5 ZN,hourly; !- [J]
Output:Meter:Cumulative,LightsWired:InteriorLights:Electricity:Zone:ENCLOSEDOFFICE_BOT_5 ZN,hourly; !- [J]
Output:Meter,Electricity:Zone:ENCLOSEDOFFICE_BOT_6 ZN,hourly; !- [J]
Output:Meter:Cumulative,Electricity:Zone:ENCLOSEDOFFICE_BOT_6 ZN,hourly; !- [J]
Output:Meter,InteriorLights:Electricity:Zone:ENCLOSEDOFFICE_BOT_6 ZN,hourly; !- [J]
Output:Meter:Cumulative,InteriorLights:Electricity:Zone:ENCLOSEDOFFICE_BOT_6 ZN,hourly; !- [J]
Output:Meter,LightsWired:InteriorLights:Electricity:Zone:ENCLOSEDOFFICE_BOT_6 ZN,hourly; !- [J]
Output:Meter:Cumulative,LightsWired:InteriorLights:Electricity:Zone:ENCLOSEDOFFICE_BOT_6 ZN,hourly; !- [J]
Output:Meter,Electricity:Zone:ENCLOSEDOFFICE_BOT_7 ZN,hourly; !- [J]
Output:Meter:Cumulative,Electricity:Zone:ENCLOSEDOFFICE_BOT_7 ZN,hourly; !- [J]
Output:Meter,InteriorLights:Electricity:Zone:ENCLOSEDOFFICE_BOT_7 ZN,hourly; !- [J]
Output:Meter:Cumulative,InteriorLights:Electricity:Zone:ENCLOSEDOFFICE_BOT_7 ZN,hourly; !- [J]
Output:Meter,LightsWired:InteriorLights:Electricity:Zone:ENCLOSEDOFFICE_BOT_7 ZN,hourly; !- [J]
Output:Meter:Cumulative,LightsWired:InteriorLights:Electricity:Zone:ENCLOSEDOFFICE_BOT_7 ZN,hourly; !- [J]
Output:Meter,Electricity:Zone:ENCLOSEDOFFICE_BOT_8 ZN,hourly; !- [J]
Output:Meter:Cumulative,Electricity:Zone:ENCLOSEDOFFICE_BOT_8 ZN,hourly; !- [J]
Output:Meter,InteriorLights:Electricity:Zone:ENCLOSEDOFFICE_BOT_8 ZN,hourly; !- [J]
Output:Meter:Cumulative,InteriorLights:Electricity:Zone:ENCLOSEDOFFICE_BOT_8 ZN,hourly; !- [J]
Output:Meter,LightsWired:InteriorLights:Electricity:Zone:ENCLOSEDOFFICE_BOT_8 ZN,hourly; !- [J]
Output:Meter:Cumulative,LightsWired:InteriorLights:Electricity:Zone:ENCLOSEDOFFICE_BOT_8 ZN,hourly; !- [J]
Output:Meter,Electricity:Zone:ENCLOSEDOFFICE_BOT_9 ZN,hourly; !- [J]
Output:Meter:Cumulative,Electricity:Zone:ENCLOSEDOFFICE_BOT_9 ZN,hourly; !- [J]
Output:Meter,InteriorLights:Electricity:Zone:ENCLOSEDOFFICE_BOT_9 ZN,hourly; !- [J]
Output:Meter:Cumulative,InteriorLights:Electricity:Zone:ENCLOSEDOFFICE_BOT_9 ZN,hourly; !- [J]
Output:Meter,LightsWired:InteriorLights:Electricity:Zone:ENCLOSEDOFFICE_BOT_9 ZN,hourly; !- [J]
Output:Meter:Cumulative,LightsWired:InteriorLights:Electricity:Zone:ENCLOSEDOFFICE_BOT_9 ZN,hourly; !- [J]
Output:Meter,Electricity:Zone:ENCLOSEDOFFICE_BOT_10 ZN,hourly; !- [J]
Output:Meter:Cumulative,Electricity:Zone:ENCLOSEDOFFICE_BOT_10 ZN,hourly; !- [J]
Output:Meter,InteriorLights:Electricity:Zone:ENCLOSEDOFFICE_BOT_10 ZN,hourly; !- [J]
Output:Meter:Cumulative,InteriorLights:Electricity:Zone:ENCLOSEDOFFICE_BOT_10 ZN,hourly; !- [J]
Output:Meter,LightsWired:InteriorLights:Electricity:Zone:ENCLOSEDOFFICE_BOT_10 ZN,hourly; !- [J]
Output:Meter:Cumulative,LightsWired:InteriorLights:Electricity:Zone:ENCLOSEDOFFICE_BOT_10 ZN,hourly; !- [J]
Output:Meter,Electricity:Zone:ENCLOSEDOFFICE_MID_1 ZN,hourly; !- [J]
Output:Meter:Cumulative,Electricity:Zone:ENCLOSEDOFFICE_MID_1 ZN,hourly; !- [J]
Output:Meter,InteriorLights:Electricity:Zone:ENCLOSEDOFFICE_MID_1 ZN,hourly; !- [J]
Output:Meter:Cumulative,InteriorLights:Electricity:Zone:ENCLOSEDOFFICE_MID_1 ZN,hourly; !- [J]
Output:Meter,LightsWired:InteriorLights:Electricity:Zone:ENCLOSEDOFFICE_MID_1 ZN,hourly; !- [J]
Output:Meter:Cumulative,LightsWired:InteriorLights:Electricity:Zone:ENCLOSEDOFFICE_MID_1 ZN,hourly; !- [J]
Output:Meter,Electricity:Zone:ENCLOSEDOFFICE_MID_2 ZN,hourly; !- [J]
Output:Meter:Cumulative,Electricity:Zone:ENCLOSEDOFFICE_MID_2 ZN,hourly; !- [J]
Output:Meter,InteriorLights:Electricity:Zone:ENCLOSEDOFFICE_MID_2 ZN,hourly; !- [J]
Output:Meter:Cumulative,InteriorLights:Electricity:Zone:ENCLOSEDOFFICE_MID_2 ZN,hourly; !- [J]
Output:Meter,LightsWired:InteriorLights:Electricity:Zone:ENCLOSEDOFFICE_MID_2 ZN,hourly; !- [J]
Output:Meter:Cumulative,LightsWired:InteriorLights:Electricity:Zone:ENCLOSEDOFFICE_MID_2 ZN,hourly; !- [J]
Output:Meter,Electricity:Zone:ENCLOSEDOFFICE_MID_3 ZN,hourly; !- [J]
Output:Meter:Cumulative,Electricity:Zone:ENCLOSEDOFFICE_MID_3 ZN,hourly; !- [J]
Output:Meter,InteriorLights:Electricity:Zone:ENCLOSEDOFFICE_MID_3 ZN,hourly; !- [J]
Output:Meter:Cumulative,InteriorLights:Electricity:Zone:ENCLOSEDOFFICE_MID_3 ZN,hourly; !- [J]
Output:Meter,LightsWired:InteriorLights:Electricity:Zone:ENCLOSEDOFFICE_MID_3 ZN,hourly; !- [J]
Output:Meter:Cumulative,LightsWired:InteriorLights:Electricity:Zone:ENCLOSEDOFFICE_MID_3 ZN,hourly; !- [J]
Output:Meter,Electricity:Zone:ENCLOSEDOFFICE_MID_4 ZN,hourly; !- [J]
Output:Meter:Cumulative,Electricity:Zone:ENCLOSEDOFFICE_MID_4 ZN,hourly; !- [J]
Output:Meter,InteriorLights:Electricity:Zone:ENCLOSEDOFFICE_MID_4 ZN,hourly; !- [J]
Output:Meter:Cumulative,InteriorLights:Electricity:Zone:ENCLOSEDOFFICE_MID_4 ZN,hourly; !- [J]
Output:Meter,LightsWired:InteriorLights:Electricity:Zone:ENCLOSEDOFFICE_MID_4 ZN,hourly; !- [J]
Output:Meter:Cumulative,LightsWired:InteriorLights:Electricity:Zone:ENCLOSEDOFFICE_MID_4 ZN,hourly; !- [J]
Output:Meter,Electricity:Zone:ENCLOSEDOFFICE_MID_5 ZN,hourly; !- [J]
Output:Meter:Cumulative,Electricity:Zone:ENCLOSEDOFFICE_MID_5 ZN,hourly; !- [J]
Output:Meter,InteriorLights:Electricity:Zone:ENCLOSEDOFFICE_MID_5 ZN,hourly; !- [J]
Output:Meter:Cumulative,InteriorLights:Electricity:Zone:ENCLOSEDOFFICE_MID_5 ZN,hourly; !- [J]
Output:Meter,LightsWired:InteriorLights:Electricity:Zone:ENCLOSEDOFFICE_MID_5 ZN,hourly; !- [J]
Output:Meter:Cumulative,LightsWired:InteriorLights:Electricity:Zone:ENCLOSEDOFFICE_MID_5 ZN,hourly; !- [J]
Output:Meter,Electricity:Zone:ENCLOSEDOFFICE_MID_6 ZN,hourly; !- [J]
Output:Meter:Cumulative,Electricity:Zone:ENCLOSEDOFFICE_MID_6 ZN,hourly; !- [J]
Output:Meter,InteriorLights:Electricity:Zone:ENCLOSEDOFFICE_MID_6 ZN,hourly; !- [J]
Output:Meter:Cumulative,InteriorLights:Electricity:Zone:ENCLOSEDOFFICE_MID_6 ZN,hourly; !- [J]
Output:Meter,LightsWired:InteriorLights:Electricity:Zone:ENCLOSEDOFFICE_MID_6 ZN,hourly; !- [J]
Output:Meter:Cumulative,LightsWired:InteriorLights:Electricity:Zone:ENCLOSEDOFFICE_MID_6 ZN,hourly; !- [J]
Output:Meter,Electricity:Zone:ENCLOSEDOFFICE_MID_7 ZN,hourly; !- [J]
Output:Meter:Cumulative,Electricity:Zone:ENCLOSEDOFFICE_MID_7 ZN,hourly; !- [J]
Output:Meter,InteriorLights:Electricity:Zone:ENCLOSEDOFFICE_MID_7 ZN,hourly; !- [J]
Output:Meter:Cumulative,InteriorLights:Electricity:Zone:ENCLOSEDOFFICE_MID_7 ZN,hourly; !- [J]
Output:Meter,LightsWired:InteriorLights:Electricity:Zone:ENCLOSEDOFFICE_MID_7 ZN,hourly; !- [J]
Output:Meter:Cumulative,LightsWired:InteriorLights:Electricity:Zone:ENCLOSEDOFFICE_MID_7 ZN,hourly; !- [J]
Output:Meter,Electricity:Zone:ENCLOSEDOFFICE_MID_8 ZN,hourly; !- [J]
Output:Meter:Cumulative,Electricity:Zone:ENCLOSEDOFFICE_MID_8 ZN,hourly; !- [J]
Output:Meter,InteriorLights:Electricity:Zone:ENCLOSEDOFFICE_MID_8 ZN,hourly; !- [J]
Output:Meter:Cumulative,InteriorLights:Electricity:Zone:ENCLOSEDOFFICE_MID_8 ZN,hourly; !- [J]
Output:Meter,LightsWired:InteriorLights:Electricity:Zone:ENCLOSEDOFFICE_MID_8 ZN,hourly; !- [J]
Output:Meter:Cumulative,LightsWired:InteriorLights:Electricity:Zone:ENCLOSEDOFFICE_MID_8 ZN,hourly; !- [J]
Output:Meter,Electricity:Zone:ENCLOSEDOFFICE_MID_9 ZN,hourly; !- [J]
Output:Meter:Cumulative,Electricity:Zone:ENCLOSEDOFFICE_MID_9 ZN,hourly; !- [J]
Output:Meter,InteriorLights:Electricity:Zone:ENCLOSEDOFFICE_MID_9 ZN,hourly; !- [J]
Output:Meter:Cumulative,InteriorLights:Electricity:Zone:ENCLOSEDOFFICE_MID_9 ZN,hourly; !- [J]
Output:Meter,LightsWired:InteriorLights:Electricity:Zone:ENCLOSEDOFFICE_MID_9 ZN,hourly; !- [J]
Output:Meter:Cumulative,LightsWired:InteriorLights:Electricity:Zone:ENCLOSEDOFFICE_MID_9 ZN,hourly; !- [J]
Output:Meter,Electricity:Zone:ENCLOSEDOFFICE_TOP_1 ZN,hourly; !- [J]
Output:Meter:Cumulative,Electricity:Zone:ENCLOSEDOFFICE_TOP_1 ZN,hourly; !- [J]
Output:Meter,InteriorLights:Electricity:Zone:ENCLOSEDOFFICE_TOP_1 ZN,hourly; !- [J]
Output:Meter:Cumulative,InteriorLights:Electricity:Zone:ENCLOSEDOFFICE_TOP_1 ZN,hourly; !- [J]
Output:Meter,LightsWired:InteriorLights:Electricity:Zone:ENCLOSEDOFFICE_TOP_1 ZN,hourly; !- [J]
Output:Meter:Cumulative,LightsWired:InteriorLights:Electricity:Zone:ENCLOSEDOFFICE_TOP_1 ZN,hourly; !- [J]
Output:Meter,Electricity:Zone:ENCLOSEDOFFICE_TOP_2 ZN,hourly; !- [J]
Output:Meter:Cumulative,Electricity:Zone:ENCLOSEDOFFICE_TOP_2 ZN,hourly; !- [J]
Output:Meter,InteriorLights:Electricity:Zone:ENCLOSEDOFFICE_TOP_2 ZN,hourly; !- [J]
Output:Meter:Cumulative,InteriorLights:Electricity:Zone:ENCLOSEDOFFICE_TOP_2 ZN,hourly; !- [J]
Output:Meter,LightsWired:InteriorLights:Electricity:Zone:ENCLOSEDOFFICE_TOP_2 ZN,hourly; !- [J]
Output:Meter:Cumulative,LightsWired:InteriorLights:Electricity:Zone:ENCLOSEDOFFICE_TOP_2 ZN,hourly; !- [J]
Output:Meter,Electricity:Zone:ENCLOSEDOFFICE_TOP_3 ZN,hourly; !- [J]
Output:Meter:Cumulative,Electricity:Zone:ENCLOSEDOFFICE_TOP_3 ZN,hourly; !- [J]
Output:Meter,InteriorLights:Electricity:Zone:ENCLOSEDOFFICE_TOP_3 ZN,hourly; !- [J]
Output:Meter:Cumulative,InteriorLights:Electricity:Zone:ENCLOSEDOFFICE_TOP_3 ZN,hourly; !- [J]
Output:Meter,LightsWired:InteriorLights:Electricity:Zone:ENCLOSEDOFFICE_TOP_3 ZN,hourly; !- [J]
Output:Meter:Cumulative,LightsWired:InteriorLights:Electricity:Zone:ENCLOSEDOFFICE_TOP_3 ZN,hourly; !- [J]
Output:Meter,Electricity:Zone:ENCLOSEDOFFICE_TOP_4 ZN,hourly; !- [J]
Output:Meter:Cumulative,Electricity:Zone:ENCLOSEDOFFICE_TOP_4 ZN,hourly; !- [J]
Output:Meter,InteriorLights:Electricity:Zone:ENCLOSEDOFFICE_TOP_4 ZN,hourly; !- [J]
Output:Meter:Cumulative,InteriorLights:Electricity:Zone:ENCLOSEDOFFICE_TOP_4 ZN,hourly; !- [J]
Output:Meter,LightsWired:InteriorLights:Electricity:Zone:ENCLOSEDOFFICE_TOP_4 ZN,hourly; !- [J]
Output:Meter:Cumulative,LightsWired:InteriorLights:Electricity:Zone:ENCLOSEDOFFICE_TOP_4 ZN,hourly; !- [J]
Output:Meter,Electricity:Zone:ENCLOSEDOFFICE_TOP_5 ZN,hourly; !- [J]
Output:Meter:Cumulative,Electricity:Zone:ENCLOSEDOFFICE_TOP_5 ZN,hourly; !- [J]
Output:Meter,InteriorLights:Electricity:Zone:ENCLOSEDOFFICE_TOP_5 ZN,hourly; !- [J]
Output:Meter:Cumulative,InteriorLights:Electricity:Zone:ENCLOSEDOFFICE_TOP_5 ZN,hourly; !- [J]
Output:Meter,LightsWired:InteriorLights:Electricity:Zone:ENCLOSEDOFFICE_TOP_5 ZN,hourly; !- [J]
Output:Meter:Cumulative,LightsWired:InteriorLights:Electricity:Zone:ENCLOSEDOFFICE_TOP_5 ZN,hourly; !- [J]
Output:Meter,Electricity:Zone:ENCLOSEDOFFICE_TOP_6 ZN,hourly; !- [J]
Output:Meter:Cumulative,Electricity:Zone:ENCLOSEDOFFICE_TOP_6 ZN,hourly; !- [J]
Output:Meter,InteriorLights:Electricity:Zone:ENCLOSEDOFFICE_TOP_6 ZN,hourly; !- [J]
Output:Meter:Cumulative,InteriorLights:Electricity:Zone:ENCLOSEDOFFICE_TOP_6 ZN,hourly; !- [J]
Output:Meter,LightsWired:InteriorLights:Electricity:Zone:ENCLOSEDOFFICE_TOP_6 ZN,hourly; !- [J]
Output:Meter:Cumulative,LightsWired:InteriorLights:Electricity:Zone:ENCLOSEDOFFICE_TOP_6 ZN,hourly; !- [J]
Output:Meter,Electricity:Zone:ENCLOSEDOFFICE_TOP_7 ZN,hourly; !- [J]
Output:Meter:Cumulative,Electricity:Zone:ENCLOSEDOFFICE_TOP_7 ZN,hourly; !- [J]
Output:Meter,InteriorLights:Electricity:Zone:ENCLOSEDOFFICE_TOP_7 ZN,hourly; !- [J]
Output:Meter:Cumulative,InteriorLights:Electricity:Zone:ENCLOSEDOFFICE_TOP_7 ZN,hourly; !- [J]
Output:Meter,LightsWired:InteriorLights:Electricity:Zone:ENCLOSEDOFFICE_TOP_7 ZN,hourly; !- [J]
Output:Meter:Cumulative,LightsWired:InteriorLights:Electricity:Zone:ENCLOSEDOFFICE_TOP_7 ZN,hourly; !- [J]
Output:Meter,Electricity:Zone:ENCLOSEDOFFICE_TOP_8 ZN,hourly; !- [J]
Output:Meter:Cumulative,Electricity:Zone:ENCLOSEDOFFICE_TOP_8 ZN,hourly; !- [J]
Output:Meter,InteriorLights:Electricity:Zone:ENCLOSEDOFFICE_TOP_8 ZN,hourly; !- [J]
Output:Meter:Cumulative,InteriorLights:Electricity:Zone:ENCLOSEDOFFICE_TOP_8 ZN,hourly; !- [J]
Output:Meter,LightsWired:InteriorLights:Electricity:Zone:ENCLOSEDOFFICE_TOP_8 ZN,hourly; !- [J]
Output:Meter:Cumulative,LightsWired:InteriorLights:Electricity:Zone:ENCLOSEDOFFICE_TOP_8 ZN,hourly; !- [J]
Output:Meter,Electricity:Zone:ENCLOSEDOFFICE_TOP_9 ZN,hourly; !- [J]
Output:Meter:Cumulative,Electricity:Zone:ENCLOSEDOFFICE_TOP_9 ZN,hourly; !- [J]
Output:Meter,InteriorLights:Electricity:Zone:ENCLOSEDOFFICE_TOP_9 ZN,hourly; !- [J]
Output:Meter:Cumulative,InteriorLights:Electricity:Zone:ENCLOSEDOFFICE_TOP_9 ZN,hourly; !- [J]
Output:Meter,LightsWired:InteriorLights:Electricity:Zone:ENCLOSEDOFFICE_TOP_9 ZN,hourly; !- [J]
Output:Meter:Cumulative,LightsWired:InteriorLights:Electricity:Zone:ENCLOSEDOFFICE_TOP_9 ZN,hourly; !- [J]
Output:Meter,Electricity:Zone:LOBBY_BOT ZN,hourly; !- [J]
Output:Meter:Cumulative,Electricity:Zone:LOBBY_BOT ZN,hourly; !- [J]
Output:Meter,InteriorLights:Electricity:Zone:LOBBY_BOT ZN,hourly; !- [J]
Output:Meter:Cumulative,InteriorLights:Electricity:Zone:LOBBY_BOT ZN,hourly; !- [J]
Output:Meter,LightsWired:InteriorLights:Electricity:Zone:LOBBY_BOT ZN,hourly; !- [J]
Output:Meter:Cumulative,LightsWired:InteriorLights:Electricity:Zone:LOBBY_BOT ZN,hourly; !- [J]
Output:Meter,Electricity:Zone:LOBBY_MID ZN,hourly; !- [J]
Output:Meter:Cumulative,Electricity:Zone:LOBBY_MID ZN,hourly; !- [J]
Output:Meter,InteriorLights:Electricity:Zone:LOBBY_MID ZN,hourly; !- [J]
Output:Meter:Cumulative,InteriorLights:Electricity:Zone:LOBBY_MID ZN,hourly; !- [J]
Output:Meter,LightsWired:InteriorLights:Electricity:Zone:LOBBY_MID ZN,hourly; !- [J]
Output:Meter:Cumulative,LightsWired:InteriorLights:Electricity:Zone:LOBBY_MID ZN,hourly; !- [J]
Output:Meter,Electricity:Zone:LOBBY_TOP ZN,hourly; !- [J]
Output:Meter:Cumulative,Electricity:Zone:LOBBY_TOP ZN,hourly; !- [J]
Output:Meter,InteriorLights:Electricity:Zone:LOBBY_TOP ZN,hourly; !- [J]
Output:Meter:Cumulative,InteriorLights:Electricity:Zone:LOBBY_TOP ZN,hourly; !- [J]
Output:Meter,LightsWired:InteriorLights:Electricity:Zone:LOBBY_TOP ZN,hourly; !- [J]
Output:Meter:Cumulative,LightsWired:InteriorLights:Electricity:Zone:LOBBY_TOP ZN,hourly; !- [J]
Output:Meter,Electricity:Zone:LOUNGE_BOT ZN,hourly; !- [J]
Output:Meter:Cumulative,Electricity:Zone:LOUNGE_BOT ZN,hourly; !- [J]
Output:Meter,InteriorLights:Electricity:Zone:LOUNGE_BOT ZN,hourly; !- [J]
Output:Meter:Cumulative,InteriorLights:Electricity:Zone:LOUNGE_BOT ZN,hourly; !- [J]
Output:Meter,LightsWired:InteriorLights:Electricity:Zone:LOUNGE_BOT ZN,hourly; !- [J]
Output:Meter:Cumulative,LightsWired:InteriorLights:Electricity:Zone:LOUNGE_BOT ZN,hourly; !- [J]
Output:Meter,Electricity:Zone:MECHANICAL_BOT ZN,hourly; !- [J]
Output:Meter:Cumulative,Electricity:Zone:MECHANICAL_BOT ZN,hourly; !- [J]
Output:Meter,InteriorLights:Electricity:Zone:MECHANICAL_BOT ZN,hourly; !- [J]
Output:Meter:Cumulative,InteriorLights:Electricity:Zone:MECHANICAL_BOT ZN,hourly; !- [J]
Output:Meter,LightsWired:InteriorLights:Electricity:Zone:MECHANICAL_BOT ZN,hourly; !- [J]
Output:Meter:Cumulative,LightsWired:InteriorLights:Electricity:Zone:MECHANICAL_BOT ZN,hourly; !- [J]
Output:Meter,Electricity:Zone:MECHANICAL_MID ZN,hourly; !- [J]
Output:Meter:Cumulative,Electricity:Zone:MECHANICAL_MID ZN,hourly; !- [J]
Output:Meter,InteriorLights:Electricity:Zone:MECHANICAL_MID ZN,hourly; !- [J]
Output:Meter:Cumulative,InteriorLights:Electricity:Zone:MECHANICAL_MID ZN,hourly; !- [J]
Output:Meter,LightsWired:InteriorLights:Electricity:Zone:MECHANICAL_MID ZN,hourly; !- [J]
Output:Meter:Cumulative,LightsWired:InteriorLights:Electricity:Zone:MECHANICAL_MID ZN,hourly; !- [J]
Output:Meter,Electricity:Zone:MECHANICAL_TOP ZN,hourly; !- [J]
Output:Meter:Cumulative,Electricity:Zone:MECHANICAL_TOP ZN,hourly; !- [J]
Output:Meter,InteriorLights:Electricity:Zone:MECHANICAL_TOP ZN,hourly; !- [J]
Output:Meter:Cumulative,InteriorLights:Electricity:Zone:MECHANICAL_TOP ZN,hourly; !- [J]
Output:Meter,LightsWired:InteriorLights:Electricity:Zone:MECHANICAL_TOP ZN,hourly; !- [J]
Output:Meter:Cumulative,LightsWired:InteriorLights:Electricity:Zone:MECHANICAL_TOP ZN,hourly; !- [J]
Output:Meter,Electricity:Zone:OPENOFFICE_BOT_1 ZN,hourly; !- [J]
Output:Meter:Cumulative,Electricity:Zone:OPENOFFICE_BOT_1 ZN,hourly; !- [J]
Output:Meter,InteriorLights:Electricity:Zone:OPENOFFICE_BOT_1 ZN,hourly; !- [J]
Output:Meter:Cumulative,InteriorLights:Electricity:Zone:OPENOFFICE_BOT_1 ZN,hourly; !- [J]
Output:Meter,LightsWired:InteriorLights:Electricity:Zone:OPENOFFICE_BOT_1 ZN,hourly; !- [J]
Output:Meter:Cumulative,LightsWired:InteriorLights:Electricity:Zone:OPENOFFICE_BOT_1 ZN,hourly; !- [J]
Output:Meter,Electricity:Zone:OPENOFFICE_BOT_2 ZN,hourly; !- [J]
Output:Meter:Cumulative,Electricity:Zone:OPENOFFICE_BOT_2 ZN,hourly; !- [J]
Output:Meter,InteriorLights:Electricity:Zone:OPENOFFICE_BOT_2 ZN,hourly; !- [J]
Output:Meter:Cumulative,InteriorLights:Electricity:Zone:OPENOFFICE_BOT_2 ZN,hourly; !- [J]
Output:Meter,LightsWired:InteriorLights:Electricity:Zone:OPENOFFICE_BOT_2 ZN,hourly; !- [J]
Output:Meter:Cumulative,LightsWired:InteriorLights:Electricity:Zone:OPENOFFICE_BOT_2 ZN,hourly; !- [J]
Output:Meter,Electricity:Zone:OPENOFFICE_BOT_3 ZN,hourly; !- [J]
Output:Meter:Cumulative,Electricity:Zone:OPENOFFICE_BOT_3 ZN,hourly; !- [J]
Output:Meter,InteriorLights:Electricity:Zone:OPENOFFICE_BOT_3 ZN,hourly; !- [J]
Output:Meter:Cumulative,InteriorLights:Electricity:Zone:OPENOFFICE_BOT_3 ZN,hourly; !- [J]
Output:Meter,LightsWired:InteriorLights:Electricity:Zone:OPENOFFICE_BOT_3 ZN,hourly; !- [J]
Output:Meter:Cumulative,LightsWired:InteriorLights:Electricity:Zone:OPENOFFICE_BOT_3 ZN,hourly; !- [J]
Output:Meter,Electricity:Zone:OPENOFFICE_MID_1 ZN,hourly; !- [J]
Output:Meter:Cumulative,Electricity:Zone:OPENOFFICE_MID_1 ZN,hourly; !- [J]
Output:Meter,InteriorLights:Electricity:Zone:OPENOFFICE_MID_1 ZN,hourly; !- [J]
Output:Meter:Cumulative,InteriorLights:Electricity:Zone:OPENOFFICE_MID_1 ZN,hourly; !- [J]
Output:Meter,LightsWired:InteriorLights:Electricity:Zone:OPENOFFICE_MID_1 ZN,hourly; !- [J]
Output:Meter:Cumulative,LightsWired:InteriorLights:Electricity:Zone:OPENOFFICE_MID_1 ZN,hourly; !- [J]
Output:Meter,Electricity:Zone:OPENOFFICE_MID_2 ZN,hourly; !- [J]
Output:Meter:Cumulative,Electricity:Zone:OPENOFFICE_MID_2 ZN,hourly; !- [J]
Output:Meter,InteriorLights:Electricity:Zone:OPENOFFICE_MID_2 ZN,hourly; !- [J]
Output:Meter:Cumulative,InteriorLights:Electricity:Zone:OPENOFFICE_MID_2 ZN,hourly; !- [J]
Output:Meter,LightsWired:InteriorLights:Electricity:Zone:OPENOFFICE_MID_2 ZN,hourly; !- [J]
Output:Meter:Cumulative,LightsWired:InteriorLights:Electricity:Zone:OPENOFFICE_MID_2 ZN,hourly; !- [J]
Output:Meter,Electricity:Zone:OPENOFFICE_MID_3 ZN,hourly; !- [J]
Output:Meter:Cumulative,Electricity:Zone:OPENOFFICE_MID_3 ZN,hourly; !- [J]
Output:Meter,InteriorLights:Electricity:Zone:OPENOFFICE_MID_3 ZN,hourly; !- [J]
Output:Meter:Cumulative,InteriorLights:Electricity:Zone:OPENOFFICE_MID_3 ZN,hourly; !- [J]
Output:Meter,LightsWired:InteriorLights:Electricity:Zone:OPENOFFICE_MID_3 ZN,hourly; !- [J]
Output:Meter:Cumulative,LightsWired:InteriorLights:Electricity:Zone:OPENOFFICE_MID_3 ZN,hourly; !- [J]
Output:Meter,Electricity:Zone:OPENOFFICE_MID_4 ZN,hourly; !- [J]
Output:Meter:Cumulative,Electricity:Zone:OPENOFFICE_MID_4 ZN,hourly; !- [J]
Output:Meter,InteriorLights:Electricity:Zone:OPENOFFICE_MID_4 ZN,hourly; !- [J]
Output:Meter:Cumulative,InteriorLights:Electricity:Zone:OPENOFFICE_MID_4 ZN,hourly; !- [J]
Output:Meter,LightsWired:InteriorLights:Electricity:Zone:OPENOFFICE_MID_4 ZN,hourly; !- [J]
Output:Meter:Cumulative,LightsWired:InteriorLights:Electricity:Zone:OPENOFFICE_MID_4 ZN,hourly; !- [J]
Output:Meter,Electricity:Zone:OPENOFFICE_TOP_1 ZN,hourly; !- [J]
Output:Meter:Cumulative,Electricity:Zone:OPENOFFICE_TOP_1 ZN,hourly; !- [J]
Output:Meter,InteriorLights:Electricity:Zone:OPENOFFICE_TOP_1 ZN,hourly; !- [J]
Output:Meter:Cumulative,InteriorLights:Electricity:Zone:OPENOFFICE_TOP_1 ZN,hourly; !- [J]
Output:Meter,LightsWired:InteriorLights:Electricity:Zone:OPENOFFICE_TOP_1 ZN,hourly; !- [J]
Output:Meter:Cumulative,LightsWired:InteriorLights:Electricity:Zone:OPENOFFICE_TOP_1 ZN,hourly; !- [J]
Output:Meter,Electricity:Zone:OPENOFFICE_TOP_2 ZN,hourly; !- [J]
Output:Meter:Cumulative,Electricity:Zone:OPENOFFICE_TOP_2 ZN,hourly; !- [J]
Output:Meter,InteriorLights:Electricity:Zone:OPENOFFICE_TOP_2 ZN,hourly; !- [J]
Output:Meter:Cumulative,InteriorLights:Electricity:Zone:OPENOFFICE_TOP_2 ZN,hourly; !- [J]
Output:Meter,LightsWired:InteriorLights:Electricity:Zone:OPENOFFICE_TOP_2 ZN,hourly; !- [J]
Output:Meter:Cumulative,LightsWired:InteriorLights:Electricity:Zone:OPENOFFICE_TOP_2 ZN,hourly; !- [J]
Output:Meter,Electricity:Zone:OPENOFFICE_TOP_3 ZN,hourly; !- [J]
Output:Meter:Cumulative,Electricity:Zone:OPENOFFICE_TOP_3 ZN,hourly; !- [J]
Output:Meter,InteriorLights:Electricity:Zone:OPENOFFICE_TOP_3 ZN,hourly; !- [J]
Output:Meter:Cumulative,InteriorLights:Electricity:Zone:OPENOFFICE_TOP_3 ZN,hourly; !- [J]
Output:Meter,LightsWired:InteriorLights:Electricity:Zone:OPENOFFICE_TOP_3 ZN,hourly; !- [J]
Output:Meter:Cumulative,LightsWired:InteriorLights:Electricity:Zone:OPENOFFICE_TOP_3 ZN,hourly; !- [J]
Output:Meter,Electricity:Zone:OPENOFFICE_TOP_4 ZN,hourly; !- [J]
Output:Meter:Cumulative,Electricity:Zone:OPENOFFICE_TOP_4 ZN,hourly; !- [J]
Output:Meter,InteriorLights:Electricity:Zone:OPENOFFICE_TOP_4 ZN,hourly; !- [J]
Output:Meter:Cumulative,InteriorLights:Electricity:Zone:OPENOFFICE_TOP_4 ZN,hourly; !- [J]
Output:Meter,LightsWired:InteriorLights:Electricity:Zone:OPENOFFICE_TOP_4 ZN,hourly; !- [J]
Output:Meter:Cumulative,LightsWired:InteriorLights:Electricity:Zone:OPENOFFICE_TOP_4 ZN,hourly; !- [J]
Output:Meter,Electricity:Zone:RESTROOM_BOT ZN,hourly; !- [J]
Output:Meter:Cumulative,Electricity:Zone:RESTROOM_BOT ZN,hourly; !- [J]
Output:Meter,InteriorLights:Electricity:Zone:RESTROOM_BOT ZN,hourly; !- [J]
Output:Meter:Cumulative,InteriorLights:Electricity:Zone:RESTROOM_BOT ZN,hourly; !- [J]
Output:Meter,LightsWired:InteriorLights:Electricity:Zone:RESTROOM_BOT ZN,hourly; !- [J]
Output:Meter:Cumulative,LightsWired:InteriorLights:Electricity:Zone:RESTROOM_BOT ZN,hourly; !- [J]
Output:Meter,Electricity:Zone:RESTROOM_MID ZN,hourly; !- [J]
Output:Meter:Cumulative,Electricity:Zone:RESTROOM_MID ZN,hourly; !- [J]
Output:Meter,InteriorLights:Electricity:Zone:RESTROOM_MID ZN,hourly; !- [J]
Output:Meter:Cumulative,InteriorLights:Electricity:Zone:RESTROOM_MID ZN,hourly; !- [J]
Output:Meter,LightsWired:InteriorLights:Electricity:Zone:RESTROOM_MID ZN,hourly; !- [J]
Output:Meter:Cumulative,LightsWired:InteriorLights:Electricity:Zone:RESTROOM_MID ZN,hourly; !- [J]
Output:Meter,Electricity:Zone:RESTROOM_TOP ZN,hourly; !- [J]
Output:Meter:Cumulative,Electricity:Zone:RESTROOM_TOP ZN,hourly; !- [J]
Output:Meter,InteriorLights:Electricity:Zone:RESTROOM_TOP ZN,hourly; !- [J]
Output:Meter:Cumulative,InteriorLights:Electricity:Zone:RESTROOM_TOP ZN,hourly; !- [J]
Output:Meter,LightsWired:InteriorLights:Electricity:Zone:RESTROOM_TOP ZN,hourly; !- [J]
Output:Meter:Cumulative,LightsWired:InteriorLights:Electricity:Zone:RESTROOM_TOP ZN,hourly; !- [J]
Output:Meter,Electricity:Zone:STAIR_BOT_1 ZN,hourly; !- [J]
Output:Meter:Cumulative,Electricity:Zone:STAIR_BOT_1 ZN,hourly; !- [J]
Output:Meter,InteriorLights:Electricity:Zone:STAIR_BOT_1 ZN,hourly; !- [J]
Output:Meter:Cumulative,InteriorLights:Electricity:Zone:STAIR_BOT_1 ZN,hourly; !- [J]
Output:Meter,LightsWired:InteriorLights:Electricity:Zone:STAIR_BOT_1 ZN,hourly; !- [J]
Output:Meter:Cumulative,LightsWired:InteriorLights:Electricity:Zone:STAIR_BOT_1 ZN,hourly; !- [J]
Output:Meter,Electricity:Zone:STAIR_BOT_2 ZN,hourly; !- [J]
Output:Meter:Cumulative,Electricity:Zone:STAIR_BOT_2 ZN,hourly; !- [J]
Output:Meter,InteriorLights:Electricity:Zone:STAIR_BOT_2 ZN,hourly; !- [J]
Output:Meter:Cumulative,InteriorLights:Electricity:Zone:STAIR_BOT_2 ZN,hourly; !- [J]
Output:Meter,LightsWired:InteriorLights:Electricity:Zone:STAIR_BOT_2 ZN,hourly; !- [J]
Output:Meter:Cumulative,LightsWired:InteriorLights:Electricity:Zone:STAIR_BOT_2 ZN,hourly; !- [J]
Output:Meter,Electricity:Zone:STAIR_MID_1 ZN,hourly; !- [J]
Output:Meter:Cumulative,Electricity:Zone:STAIR_MID_1 ZN,hourly; !- [J]
Output:Meter,InteriorLights:Electricity:Zone:STAIR_MID_1 ZN,hourly; !- [J]
Output:Meter:Cumulative,InteriorLights:Electricity:Zone:STAIR_MID_1 ZN,hourly; !- [J]
Output:Meter,LightsWired:InteriorLights:Electricity:Zone:STAIR_MID_1 ZN,hourly; !- [J]
Output:Meter:Cumulative,LightsWired:InteriorLights:Electricity:Zone:STAIR_MID_1 ZN,hourly; !- [J]
Output:Meter,Electricity:Zone:STAIR_MID_2 ZN,hourly; !- [J]
Output:Meter:Cumulative,Electricity:Zone:STAIR_MID_2 ZN,hourly; !- [J]
Output:Meter,InteriorLights:Electricity:Zone:STAIR_MID_2 ZN,hourly; !- [J]
Output:Meter:Cumulative,InteriorLights:Electricity:Zone:STAIR_MID_2 ZN,hourly; !- [J]
Output:Meter,LightsWired:InteriorLights:Electricity:Zone:STAIR_MID_2 ZN,hourly; !- [J]
Output:Meter:Cumulative,LightsWired:InteriorLights:Electricity:Zone:STAIR_MID_2 ZN,hourly; !- [J]
Output:Meter,Electricity:Zone:STAIR_TOP_1 ZN,hourly; !- [J]
Output:Meter:Cumulative,Electricity:Zone:STAIR_TOP_1 ZN,hourly; !- [J]
Output:Meter,InteriorLights:Electricity:Zone:STAIR_TOP_1 ZN,hourly; !- [J]
Output:Meter:Cumulative,InteriorLights:Electricity:Zone:STAIR_TOP_1 ZN,hourly; !- [J]
Output:Meter,LightsWired:InteriorLights:Electricity:Zone:STAIR_TOP_1 ZN,hourly; !- [J]
Output:Meter:Cumulative,LightsWired:InteriorLights:Electricity:Zone:STAIR_TOP_1 ZN,hourly; !- [J]
Output:Meter,Electricity:Zone:STAIR_TOP_2 ZN,hourly; !- [J]
Output:Meter:Cumulative,Electricity:Zone:STAIR_TOP_2 ZN,hourly; !- [J]
Output:Meter,InteriorLights:Electricity:Zone:STAIR_TOP_2 ZN,hourly; !- [J]
Output:Meter:Cumulative,InteriorLights:Electricity:Zone:STAIR_TOP_2 ZN,hourly; !- [J]
Output:Meter,LightsWired:InteriorLights:Electricity:Zone:STAIR_TOP_2 ZN,hourly; !- [J]
Output:Meter:Cumulative,LightsWired:InteriorLights:Electricity:Zone:STAIR_TOP_2 ZN,hourly; !- [J]
Output:Meter,InteriorEquipment:Electricity,hourly; !- [J]
Output:Meter:Cumulative,InteriorEquipment:Electricity,hourly; !- [J]
Output:Meter,InteriorEquipment:Electricity:Zone:LOBBY_BOT ZN,hourly; !- [J]
Output:Meter:Cumulative,InteriorEquipment:Electricity:Zone:LOBBY_BOT ZN,hourly; !- [J]
Output:Meter,InteriorEquipment:Electricity:SpaceType:GENERAL,hourly; !- [J]
Output:Meter:Cumulative,InteriorEquipment:Electricity:SpaceType:GENERAL,hourly; !- [J]
Output:Meter,ElevatorLift:InteriorEquipment:Electricity,hourly; !- [J]
Output:Meter:Cumulative,ElevatorLift:InteriorEquipment:Electricity,hourly; !- [J]
Output:Meter,ElevatorLift:InteriorEquipment:Electricity:Zone:LOBBY_BOT ZN,hourly; !- [J]
Output:Meter:Cumulative,ElevatorLift:InteriorEquipment:Electricity:Zone:LOBBY_BOT ZN,hourly; !- [J]
Output:Meter,ElevatorLift:InteriorEquipment:Electricity:SpaceType:GENERAL,hourly; !- [J]
Output:Meter:Cumulative,ElevatorLift:InteriorEquipment:Electricity:SpaceType:GENERAL,hourly; !- [J]
Output:Meter,ElevatorLightsFan:InteriorEquipment:Electricity,hourly; !- [J]
Output:Meter:Cumulative,ElevatorLightsFan:InteriorEquipment:Electricity,hourly; !- [J]
Output:Meter,ElevatorLightsFan:InteriorEquipment:Electricity:Zone:LOBBY_BOT ZN,hourly; !- [J]
Output:Meter:Cumulative,ElevatorLightsFan:InteriorEquipment:Electricity:Zone:LOBBY_BOT ZN,hourly; !- [J]
Output:Meter,ElevatorLightsFan:InteriorEquipment:Electricity:SpaceType:GENERAL,hourly; !- [J]
Output:Meter:Cumulative,ElevatorLightsFan:InteriorEquipment:Electricity:SpaceType:GENERAL,hourly; !- [J]
Output:Meter,InteriorEquipment:Electricity:Zone:CLASSROOM_BOT ZN,hourly; !- [J]
Output:Meter:Cumulative,InteriorEquipment:Electricity:Zone:CLASSROOM_BOT ZN,hourly; !- [J]
Output:Meter,General:InteriorEquipment:Electricity,hourly; !- [J]
Output:Meter:Cumulative,General:InteriorEquipment:Electricity,hourly; !- [J]
Output:Meter,General:InteriorEquipment:Electricity:Zone:CLASSROOM_BOT ZN,hourly; !- [J]
Output:Meter:Cumulative,General:InteriorEquipment:Electricity:Zone:CLASSROOM_BOT ZN,hourly; !- [J]
Output:Meter,General:InteriorEquipment:Electricity:SpaceType:GENERAL,hourly; !- [J]
Output:Meter:Cumulative,General:InteriorEquipment:Electricity:SpaceType:GENERAL,hourly; !- [J]
Output:Meter,InteriorEquipment:Electricity:Zone:ENCLOSEDOFFICE_BOT_7 ZN,hourly; !- [J]
Output:Meter:Cumulative,InteriorEquipment:Electricity:Zone:ENCLOSEDOFFICE_BOT_7 ZN,hourly; !- [J]
Output:Meter,General:InteriorEquipment:Electricity:Zone:ENCLOSEDOFFICE_BOT_7 ZN,hourly; !- [J]
Output:Meter:Cumulative,General:InteriorEquipment:Electricity:Zone:ENCLOSEDOFFICE_BOT_7 ZN,hourly; !- [J]
Output:Meter,InteriorEquipment:Electricity:Zone:ENCLOSEDOFFICE_BOT_10 ZN,hourly; !- [J]
Output:Meter:Cumulative,InteriorEquipment:Electricity:Zone:ENCLOSEDOFFICE_BOT_10 ZN,hourly; !- [J]
Output:Meter,General:InteriorEquipment:Electricity:Zone:ENCLOSEDOFFICE_BOT_10 ZN,hourly; !- [J]
Output:Meter:Cumulative,General:InteriorEquipment:Electricity:Zone:ENCLOSEDOFFICE_BOT_10 ZN,hourly; !- [J]
Output:Meter,InteriorEquipment:Electricity:Zone:ENCLOSEDOFFICE_BOT_3 ZN,hourly; !- [J]
Output:Meter:Cumulative,InteriorEquipment:Electricity:Zone:ENCLOSEDOFFICE_BOT_3 ZN,hourly; !- [J]
Output:Meter,General:InteriorEquipment:Electricity:Zone:ENCLOSEDOFFICE_BOT_3 ZN,hourly; !- [J]
Output:Meter:Cumulative,General:InteriorEquipment:Electricity:Zone:ENCLOSEDOFFICE_BOT_3 ZN,hourly; !- [J]
Output:Meter,InteriorEquipment:Electricity:Zone:ENCLOSEDOFFICE_BOT_4 ZN,hourly; !- [J]
Output:Meter:Cumulative,InteriorEquipment:Electricity:Zone:ENCLOSEDOFFICE_BOT_4 ZN,hourly; !- [J]
Output:Meter,General:InteriorEquipment:Electricity:Zone:ENCLOSEDOFFICE_BOT_4 ZN,hourly; !- [J]
Output:Meter:Cumulative,General:InteriorEquipment:Electricity:Zone:ENCLOSEDOFFICE_BOT_4 ZN,hourly; !- [J]
Output:Meter,InteriorEquipment:Electricity:Zone:ENCLOSEDOFFICE_MID_1 ZN,hourly; !- [J]
Output:Meter:Cumulative,InteriorEquipment:Electricity:Zone:ENCLOSEDOFFICE_MID_1 ZN,hourly; !- [J]
Output:Meter,General:InteriorEquipment:Electricity:Zone:ENCLOSEDOFFICE_MID_1 ZN,hourly; !- [J]
Output:Meter:Cumulative,General:InteriorEquipment:Electricity:Zone:ENCLOSEDOFFICE_MID_1 ZN,hourly; !- [J]
Output:Meter,InteriorEquipment:Electricity:Zone:ENCLOSEDOFFICE_MID_2 ZN,hourly; !- [J]
Output:Meter:Cumulative,InteriorEquipment:Electricity:Zone:ENCLOSEDOFFICE_MID_2 ZN,hourly; !- [J]
Output:Meter,General:InteriorEquipment:Electricity:Zone:ENCLOSEDOFFICE_MID_2 ZN,hourly; !- [J]
Output:Meter:Cumulative,General:InteriorEquipment:Electricity:Zone:ENCLOSEDOFFICE_MID_2 ZN,hourly; !- [J]
Output:Meter,InteriorEquipment:Electricity:Zone:ENCLOSEDOFFICE_MID_3 ZN,hourly; !- [J]
Output:Meter:Cumulative,InteriorEquipment:Electricity:Zone:ENCLOSEDOFFICE_MID_3 ZN,hourly; !- [J]
Output:Meter,General:InteriorEquipment:Electricity:Zone:ENCLOSEDOFFICE_MID_3 ZN,hourly; !- [J]
Output:Meter:Cumulative,General:InteriorEquipment:Electricity:Zone:ENCLOSEDOFFICE_MID_3 ZN,hourly; !- [J]
Output:Meter,InteriorEquipment:Electricity:Zone:ENCLOSEDOFFICE_TOP_1 ZN,hourly; !- [J]
Output:Meter:Cumulative,InteriorEquipment:Electricity:Zone:ENCLOSEDOFFICE_TOP_1 ZN,hourly; !- [J]
Output:Meter,General:InteriorEquipment:Electricity:Zone:ENCLOSEDOFFICE_TOP_1 ZN,hourly; !- [J]
Output:Meter:Cumulative,General:InteriorEquipment:Electricity:Zone:ENCLOSEDOFFICE_TOP_1 ZN,hourly; !- [J]
Output:Meter,InteriorEquipment:Electricity:Zone:ENCLOSEDOFFICE_TOP_2 ZN,hourly; !- [J]
Output:Meter:Cumulative,InteriorEquipment:Electricity:Zone:ENCLOSEDOFFICE_TOP_2 ZN,hourly; !- [J]
Output:Meter,General:InteriorEquipment:Electricity:Zone:ENCLOSEDOFFICE_TOP_2 ZN,hourly; !- [J]
Output:Meter:Cumulative,General:InteriorEquipment:Electricity:Zone:ENCLOSEDOFFICE_TOP_2 ZN,hourly; !- [J]
Output:Meter,InteriorEquipment:Electricity:Zone:ENCLOSEDOFFICE_TOP_3 ZN,hourly; !- [J]
Output:Meter:Cumulative,InteriorEquipment:Electricity:Zone:ENCLOSEDOFFICE_TOP_3 ZN,hourly; !- [J]
Output:Meter,General:InteriorEquipment:Electricity:Zone:ENCLOSEDOFFICE_TOP_3 ZN,hourly; !- [J]
Output:Meter:Cumulative,General:InteriorEquipment:Electricity:Zone:ENCLOSEDOFFICE_TOP_3 ZN,hourly; !- [J]
Output:Meter,InteriorEquipment:Electricity:Zone:ENCLOSEDOFFICE_BOT_5 ZN,hourly; !- [J]
Output:Meter:Cumulative,InteriorEquipment:Electricity:Zone:ENCLOSEDOFFICE_BOT_5 ZN,hourly; !- [J]
Output:Meter,General:InteriorEquipment:Electricity:Zone:ENCLOSEDOFFICE_BOT_5 ZN,hourly; !- [J]
Output:Meter:Cumulative,General:InteriorEquipment:Electricity:Zone:ENCLOSEDOFFICE_BOT_5 ZN,hourly; !- [J]
Output:Meter,InteriorEquipment:Electricity:Zone:ENCLOSEDOFFICE_BOT_1 ZN,hourly; !- [J]
Output:Meter:Cumulative,InteriorEquipment:Electricity:Zone:ENCLOSEDOFFICE_BOT_1 ZN,hourly; !- [J]
Output:Meter,General:InteriorEquipment:Electricity:Zone:ENCLOSEDOFFICE_BOT_1 ZN,hourly; !- [J]
Output:Meter:Cumulative,General:InteriorEquipment:Electricity:Zone:ENCLOSEDOFFICE_BOT_1 ZN,hourly; !- [J]
Output:Meter,InteriorEquipment:Electricity:Zone:ENCLOSEDOFFICE_BOT_9 ZN,hourly; !- [J]
Output:Meter:Cumulative,InteriorEquipment:Electricity:Zone:ENCLOSEDOFFICE_BOT_9 ZN,hourly; !- [J]
Output:Meter,General:InteriorEquipment:Electricity:Zone:ENCLOSEDOFFICE_BOT_9 ZN,hourly; !- [J]
Output:Meter:Cumulative,General:InteriorEquipment:Electricity:Zone:ENCLOSEDOFFICE_BOT_9 ZN,hourly; !- [J]
Output:Meter,InteriorEquipment:Electricity:Zone:ENCLOSEDOFFICE_BOT_8 ZN,hourly; !- [J]
Output:Meter:Cumulative,InteriorEquipment:Electricity:Zone:ENCLOSEDOFFICE_BOT_8 ZN,hourly; !- [J]
Output:Meter,General:InteriorEquipment:Electricity:Zone:ENCLOSEDOFFICE_BOT_8 ZN,hourly; !- [J]
Output:Meter:Cumulative,General:InteriorEquipment:Electricity:Zone:ENCLOSEDOFFICE_BOT_8 ZN,hourly; !- [J]
Output:Meter,InteriorEquipment:Electricity:Zone:ENCLOSEDOFFICE_BOT_2 ZN,hourly; !- [J]
Output:Meter:Cumulative,InteriorEquipment:Electricity:Zone:ENCLOSEDOFFICE_BOT_2 ZN,hourly; !- [J]
Output:Meter,General:InteriorEquipment:Electricity:Zone:ENCLOSEDOFFICE_BOT_2 ZN,hourly; !- [J]
Output:Meter:Cumulative,General:InteriorEquipment:Electricity:Zone:ENCLOSEDOFFICE_BOT_2 ZN,hourly; !- [J]
Output:Meter,InteriorEquipment:Electricity:Zone:ENCLOSEDOFFICE_MID_4 ZN,hourly; !- [J]
Output:Meter:Cumulative,InteriorEquipment:Electricity:Zone:ENCLOSEDOFFICE_MID_4 ZN,hourly; !- [J]
Output:Meter,General:InteriorEquipment:Electricity:Zone:ENCLOSEDOFFICE_MID_4 ZN,hourly; !- [J]
Output:Meter:Cumulative,General:InteriorEquipment:Electricity:Zone:ENCLOSEDOFFICE_MID_4 ZN,hourly; !- [J]
Output:Meter,InteriorEquipment:Electricity:Zone:ENCLOSEDOFFICE_MID_5 ZN,hourly; !- [J]
Output:Meter:Cumulative,InteriorEquipment:Electricity:Zone:ENCLOSEDOFFICE_MID_5 ZN,hourly; !- [J]
Output:Meter,General:InteriorEquipment:Electricity:Zone:ENCLOSEDOFFICE_MID_5 ZN,hourly; !- [J]
Output:Meter:Cumulative,General:InteriorEquipment:Electricity:Zone:ENCLOSEDOFFICE_MID_5 ZN,hourly; !- [J]
Output:Meter,InteriorEquipment:Electricity:Zone:ENCLOSEDOFFICE_MID_6 ZN,hourly; !- [J]
Output:Meter:Cumulative,InteriorEquipment:Electricity:Zone:ENCLOSEDOFFICE_MID_6 ZN,hourly; !- [J]
Output:Meter,General:InteriorEquipment:Electricity:Zone:ENCLOSEDOFFICE_MID_6 ZN,hourly; !- [J]
Output:Meter:Cumulative,General:InteriorEquipment:Electricity:Zone:ENCLOSEDOFFICE_MID_6 ZN,hourly; !- [J]
Output:Meter,InteriorEquipment:Electricity:Zone:ENCLOSEDOFFICE_MID_7 ZN,hourly; !- [J]
Output:Meter:Cumulative,InteriorEquipment:Electricity:Zone:ENCLOSEDOFFICE_MID_7 ZN,hourly; !- [J]
Output:Meter,General:InteriorEquipment:Electricity:Zone:ENCLOSEDOFFICE_MID_7 ZN,hourly; !- [J]
Output:Meter:Cumulative,General:InteriorEquipment:Electricity:Zone:ENCLOSEDOFFICE_MID_7 ZN,hourly; !- [J]
Output:Meter,InteriorEquipment:Electricity:Zone:ENCLOSEDOFFICE_MID_8 ZN,hourly; !- [J]
Output:Meter:Cumulative,InteriorEquipment:Electricity:Zone:ENCLOSEDOFFICE_MID_8 ZN,hourly; !- [J]
Output:Meter,General:InteriorEquipment:Electricity:Zone:ENCLOSEDOFFICE_MID_8 ZN,hourly; !- [J]
Output:Meter:Cumulative,General:InteriorEquipment:Electricity:Zone:ENCLOSEDOFFICE_MID_8 ZN,hourly; !- [J]
Output:Meter,InteriorEquipment:Electricity:Zone:ENCLOSEDOFFICE_MID_9 ZN,hourly; !- [J]
Output:Meter:Cumulative,InteriorEquipment:Electricity:Zone:ENCLOSEDOFFICE_MID_9 ZN,hourly; !- [J]
Output:Meter,General:InteriorEquipment:Electricity:Zone:ENCLOSEDOFFICE_MID_9 ZN,hourly; !- [J]
Output:Meter:Cumulative,General:InteriorEquipment:Electricity:Zone:ENCLOSEDOFFICE_MID_9 ZN,hourly; !- [J]
Output:Meter,InteriorEquipment:Electricity:Zone:ENCLOSEDOFFICE_TOP_4 ZN,hourly; !- [J]
Output:Meter:Cumulative,InteriorEquipment:Electricity:Zone:ENCLOSEDOFFICE_TOP_4 ZN,hourly; !- [J]
Output:Meter,General:InteriorEquipment:Electricity:Zone:ENCLOSEDOFFICE_TOP_4 ZN,hourly; !- [J]
Output:Meter:Cumulative,General:InteriorEquipment:Electricity:Zone:ENCLOSEDOFFICE_TOP_4 ZN,hourly; !- [J]
Output:Meter,InteriorEquipment:Electricity:Zone:ENCLOSEDOFFICE_TOP_5 ZN,hourly; !- [J]
Output:Meter:Cumulative,InteriorEquipment:Electricity:Zone:ENCLOSEDOFFICE_TOP_5 ZN,hourly; !- [J]
Output:Meter,General:InteriorEquipment:Electricity:Zone:ENCLOSEDOFFICE_TOP_5 ZN,hourly; !- [J]
Output:Meter:Cumulative,General:InteriorEquipment:Electricity:Zone:ENCLOSEDOFFICE_TOP_5 ZN,hourly; !- [J]
Output:Meter,InteriorEquipment:Electricity:Zone:ENCLOSEDOFFICE_TOP_6 ZN,hourly; !- [J]
Output:Meter:Cumulative,InteriorEquipment:Electricity:Zone:ENCLOSEDOFFICE_TOP_6 ZN,hourly; !- [J]
Output:Meter,General:InteriorEquipment:Electricity:Zone:ENCLOSEDOFFICE_TOP_6 ZN,hourly; !- [J]
Output:Meter:Cumulative,General:InteriorEquipment:Electricity:Zone:ENCLOSEDOFFICE_TOP_6 ZN,hourly; !- [J]
Output:Meter,InteriorEquipment:Electricity:Zone:ENCLOSEDOFFICE_TOP_7 ZN,hourly; !- [J]
Output:Meter:Cumulative,InteriorEquipment:Electricity:Zone:ENCLOSEDOFFICE_TOP_7 ZN,hourly; !- [J]
Output:Meter,General:InteriorEquipment:Electricity:Zone:ENCLOSEDOFFICE_TOP_7 ZN,hourly; !- [J]
Output:Meter:Cumulative,General:InteriorEquipment:Electricity:Zone:ENCLOSEDOFFICE_TOP_7 ZN,hourly; !- [J]
Output:Meter,InteriorEquipment:Electricity:Zone:ENCLOSEDOFFICE_TOP_8 ZN,hourly; !- [J]
Output:Meter:Cumulative,InteriorEquipment:Electricity:Zone:ENCLOSEDOFFICE_TOP_8 ZN,hourly; !- [J]
Output:Meter,General:InteriorEquipment:Electricity:Zone:ENCLOSEDOFFICE_TOP_8 ZN,hourly; !- [J]
Output:Meter:Cumulative,General:InteriorEquipment:Electricity:Zone:ENCLOSEDOFFICE_TOP_8 ZN,hourly; !- [J]
Output:Meter,InteriorEquipment:Electricity:Zone:ENCLOSEDOFFICE_TOP_9 ZN,hourly; !- [J]
Output:Meter:Cumulative,InteriorEquipment:Electricity:Zone:ENCLOSEDOFFICE_TOP_9 ZN,hourly; !- [J]
Output:Meter,General:InteriorEquipment:Electricity:Zone:ENCLOSEDOFFICE_TOP_9 ZN,hourly; !- [J]
Output:Meter:Cumulative,General:InteriorEquipment:Electricity:Zone:ENCLOSEDOFFICE_TOP_9 ZN,hourly; !- [J]
Output:Meter,InteriorEquipment:Electricity:Zone:CONFROOM_BOT_1 ZN,hourly; !- [J]
Output:Meter:Cumulative,InteriorEquipment:Electricity:Zone:CONFROOM_BOT_1 ZN,hourly; !- [J]
Output:Meter,General:InteriorEquipment:Electricity:Zone:CONFROOM_BOT_1 ZN,hourly; !- [J]
Output:Meter:Cumulative,General:InteriorEquipment:Electricity:Zone:CONFROOM_BOT_1 ZN,hourly; !- [J]
Output:Meter,InteriorEquipment:Electricity:Zone:CONFROOM_BOT_2 ZN,hourly; !- [J]
Output:Meter:Cumulative,InteriorEquipment:Electricity:Zone:CONFROOM_BOT_2 ZN,hourly; !- [J]
Output:Meter,General:InteriorEquipment:Electricity:Zone:CONFROOM_BOT_2 ZN,hourly; !- [J]
Output:Meter:Cumulative,General:InteriorEquipment:Electricity:Zone:CONFROOM_BOT_2 ZN,hourly; !- [J]
Output:Meter,InteriorEquipment:Electricity:Zone:CONFROOM_MID_1 ZN,hourly; !- [J]
Output:Meter:Cumulative,InteriorEquipment:Electricity:Zone:CONFROOM_MID_1 ZN,hourly; !- [J]
Output:Meter,General:InteriorEquipment:Electricity:Zone:CONFROOM_MID_1 ZN,hourly; !- [J]
Output:Meter:Cumulative,General:InteriorEquipment:Electricity:Zone:CONFROOM_MID_1 ZN,hourly; !- [J]
Output:Meter,InteriorEquipment:Electricity:Zone:CONFROOM_MID_2 ZN,hourly; !- [J]
Output:Meter:Cumulative,InteriorEquipment:Electricity:Zone:CONFROOM_MID_2 ZN,hourly; !- [J]
Output:Meter,General:InteriorEquipment:Electricity:Zone:CONFROOM_MID_2 ZN,hourly; !- [J]
Output:Meter:Cumulative,General:InteriorEquipment:Electricity:Zone:CONFROOM_MID_2 ZN,hourly; !- [J]
Output:Meter,InteriorEquipment:Electricity:Zone:CONFROOM_TOP_1 ZN,hourly; !- [J]
Output:Meter:Cumulative,InteriorEquipment:Electricity:Zone:CONFROOM_TOP_1 ZN,hourly; !- [J]
Output:Meter,General:InteriorEquipment:Electricity:Zone:CONFROOM_TOP_1 ZN,hourly; !- [J]
Output:Meter:Cumulative,General:InteriorEquipment:Electricity:Zone:CONFROOM_TOP_1 ZN,hourly; !- [J]
Output:Meter,InteriorEquipment:Electricity:Zone:CONFROOM_TOP_2 ZN,hourly; !- [J]
Output:Meter:Cumulative,InteriorEquipment:Electricity:Zone:CONFROOM_TOP_2 ZN,hourly; !- [J]
Output:Meter,General:InteriorEquipment:Electricity:Zone:CONFROOM_TOP_2 ZN,hourly; !- [J]
Output:Meter:Cumulative,General:InteriorEquipment:Electricity:Zone:CONFROOM_TOP_2 ZN,hourly; !- [J]
Output:Meter,InteriorEquipment:Electricity:Zone:CORRIDOR_BOT_1 ZN,hourly; !- [J]
Output:Meter:Cumulative,InteriorEquipment:Electricity:Zone:CORRIDOR_BOT_1 ZN,hourly; !- [J]
Output:Meter,General:InteriorEquipment:Electricity:Zone:CORRIDOR_BOT_1 ZN,hourly; !- [J]
Output:Meter:Cumulative,General:InteriorEquipment:Electricity:Zone:CORRIDOR_BOT_1 ZN,hourly; !- [J]
Output:Meter,InteriorEquipment:Electricity:Zone:CORRIDOR_BOT_2 ZN,hourly; !- [J]
Output:Meter:Cumulative,InteriorEquipment:Electricity:Zone:CORRIDOR_BOT_2 ZN,hourly; !- [J]
Output:Meter,General:InteriorEquipment:Electricity:Zone:CORRIDOR_BOT_2 ZN,hourly; !- [J]
Output:Meter:Cumulative,General:InteriorEquipment:Electricity:Zone:CORRIDOR_BOT_2 ZN,hourly; !- [J]
Output:Meter,InteriorEquipment:Electricity:Zone:CORRIDOR_MID_1 ZN,hourly; !- [J]
Output:Meter:Cumulative,InteriorEquipment:Electricity:Zone:CORRIDOR_MID_1 ZN,hourly; !- [J]
Output:Meter,General:InteriorEquipment:Electricity:Zone:CORRIDOR_MID_1 ZN,hourly; !- [J]
Output:Meter:Cumulative,General:InteriorEquipment:Electricity:Zone:CORRIDOR_MID_1 ZN,hourly; !- [J]
Output:Meter,InteriorEquipment:Electricity:Zone:CORRIDOR_MID_2 ZN,hourly; !- [J]
Output:Meter:Cumulative,InteriorEquipment:Electricity:Zone:CORRIDOR_MID_2 ZN,hourly; !- [J]
Output:Meter,General:InteriorEquipment:Electricity:Zone:CORRIDOR_MID_2 ZN,hourly; !- [J]
Output:Meter:Cumulative,General:InteriorEquipment:Electricity:Zone:CORRIDOR_MID_2 ZN,hourly; !- [J]
Output:Meter,InteriorEquipment:Electricity:Zone:CORRIDOR_TOP_1 ZN,hourly; !- [J]
Output:Meter:Cumulative,InteriorEquipment:Electricity:Zone:CORRIDOR_TOP_1 ZN,hourly; !- [J]
Output:Meter,General:InteriorEquipment:Electricity:Zone:CORRIDOR_TOP_1 ZN,hourly; !- [J]
Output:Meter:Cumulative,General:InteriorEquipment:Electricity:Zone:CORRIDOR_TOP_1 ZN,hourly; !- [J]
Output:Meter,InteriorEquipment:Electricity:Zone:CORRIDOR_TOP_2 ZN,hourly; !- [J]
Output:Meter:Cumulative,InteriorEquipment:Electricity:Zone:CORRIDOR_TOP_2 ZN,hourly; !- [J]
Output:Meter,General:InteriorEquipment:Electricity:Zone:CORRIDOR_TOP_2 ZN,hourly; !- [J]
Output:Meter:Cumulative,General:InteriorEquipment:Electricity:Zone:CORRIDOR_TOP_2 ZN,hourly; !- [J]
Output:Meter,InteriorEquipment:Electricity:Zone:DINING_BOT ZN,hourly; !- [J]
Output:Meter:Cumulative,InteriorEquipment:Electricity:Zone:DINING_BOT ZN,hourly; !- [J]
Output:Meter,General:InteriorEquipment:Electricity:Zone:DINING_BOT ZN,hourly; !- [J]
Output:Meter:Cumulative,General:InteriorEquipment:Electricity:Zone:DINING_BOT ZN,hourly; !- [J]
Output:Meter,InteriorEquipment:Electricity:Zone:DINING_MID ZN,hourly; !- [J]
Output:Meter:Cumulative,InteriorEquipment:Electricity:Zone:DINING_MID ZN,hourly; !- [J]
Output:Meter,General:InteriorEquipment:Electricity:Zone:DINING_MID ZN,hourly; !- [J]
Output:Meter:Cumulative,General:InteriorEquipment:Electricity:Zone:DINING_MID ZN,hourly; !- [J]
Output:Meter,InteriorEquipment:Electricity:Zone:DINING_TOP ZN,hourly; !- [J]
Output:Meter:Cumulative,InteriorEquipment:Electricity:Zone:DINING_TOP ZN,hourly; !- [J]
Output:Meter,General:InteriorEquipment:Electricity:Zone:DINING_TOP ZN,hourly; !- [J]
Output:Meter:Cumulative,General:InteriorEquipment:Electricity:Zone:DINING_TOP ZN,hourly; !- [J]
Output:Meter,InteriorEquipment:Electricity:Zone:MECHANICAL_BOT ZN,hourly; !- [J]
Output:Meter:Cumulative,InteriorEquipment:Electricity:Zone:MECHANICAL_BOT ZN,hourly; !- [J]
Output:Meter,General:InteriorEquipment:Electricity:Zone:MECHANICAL_BOT ZN,hourly; !- [J]
Output:Meter:Cumulative,General:InteriorEquipment:Electricity:Zone:MECHANICAL_BOT ZN,hourly; !- [J]
Output:Meter,InteriorEquipment:Electricity:Zone:MECHANICAL_MID ZN,hourly; !- [J]
Output:Meter:Cumulative,InteriorEquipment:Electricity:Zone:MECHANICAL_MID ZN,hourly; !- [J]
Output:Meter,General:InteriorEquipment:Electricity:Zone:MECHANICAL_MID ZN,hourly; !- [J]
Output:Meter:Cumulative,General:InteriorEquipment:Electricity:Zone:MECHANICAL_MID ZN,hourly; !- [J]
Output:Meter,InteriorEquipment:Electricity:Zone:MECHANICAL_TOP ZN,hourly; !- [J]
Output:Meter:Cumulative,InteriorEquipment:Electricity:Zone:MECHANICAL_TOP ZN,hourly; !- [J]
Output:Meter,General:InteriorEquipment:Electricity:Zone:MECHANICAL_TOP ZN,hourly; !- [J]
Output:Meter:Cumulative,General:InteriorEquipment:Electricity:Zone:MECHANICAL_TOP ZN,hourly; !- [J]
Output:Meter,General:InteriorEquipment:Electricity:Zone:LOBBY_BOT ZN,hourly; !- [J]
Output:Meter:Cumulative,General:InteriorEquipment:Electricity:Zone:LOBBY_BOT ZN,hourly; !- [J]
Output:Meter,InteriorEquipment:Electricity:Zone:LOBBY_MID ZN,hourly; !- [J]
Output:Meter:Cumulative,InteriorEquipment:Electricity:Zone:LOBBY_MID ZN,hourly; !- [J]
Output:Meter,General:InteriorEquipment:Electricity:Zone:LOBBY_MID ZN,hourly; !- [J]
Output:Meter:Cumulative,General:InteriorEquipment:Electricity:Zone:LOBBY_MID ZN,hourly; !- [J]
Output:Meter,InteriorEquipment:Electricity:Zone:LOBBY_TOP ZN,hourly; !- [J]
Output:Meter:Cumulative,InteriorEquipment:Electricity:Zone:LOBBY_TOP ZN,hourly; !- [J]
Output:Meter,General:InteriorEquipment:Electricity:Zone:LOBBY_TOP ZN,hourly; !- [J]
Output:Meter:Cumulative,General:InteriorEquipment:Electricity:Zone:LOBBY_TOP ZN,hourly; !- [J]
Output:Meter,InteriorEquipment:Electricity:Zone:LOUNGE_BOT ZN,hourly; !- [J]
Output:Meter:Cumulative,InteriorEquipment:Electricity:Zone:LOUNGE_BOT ZN,hourly; !- [J]
Output:Meter,General:InteriorEquipment:Electricity:Zone:LOUNGE_BOT ZN,hourly; !- [J]
Output:Meter:Cumulative,General:InteriorEquipment:Electricity:Zone:LOUNGE_BOT ZN,hourly; !- [J]
Output:Meter,InteriorEquipment:Electricity:Zone:OPENOFFICE_BOT_1 ZN,hourly; !- [J]
Output:Meter:Cumulative,InteriorEquipment:Electricity:Zone:OPENOFFICE_BOT_1 ZN,hourly; !- [J]
Output:Meter,General:InteriorEquipment:Electricity:Zone:OPENOFFICE_BOT_1 ZN,hourly; !- [J]
Output:Meter:Cumulative,General:InteriorEquipment:Electricity:Zone:OPENOFFICE_BOT_1 ZN,hourly; !- [J]
Output:Meter,InteriorEquipment:Electricity:Zone:OPENOFFICE_BOT_2 ZN,hourly; !- [J]
Output:Meter:Cumulative,InteriorEquipment:Electricity:Zone:OPENOFFICE_BOT_2 ZN,hourly; !- [J]
Output:Meter,General:InteriorEquipment:Electricity:Zone:OPENOFFICE_BOT_2 ZN,hourly; !- [J]
Output:Meter:Cumulative,General:InteriorEquipment:Electricity:Zone:OPENOFFICE_BOT_2 ZN,hourly; !- [J]
Output:Meter,InteriorEquipment:Electricity:Zone:OPENOFFICE_BOT_3 ZN,hourly; !- [J]
Output:Meter:Cumulative,InteriorEquipment:Electricity:Zone:OPENOFFICE_BOT_3 ZN,hourly; !- [J]
Output:Meter,General:InteriorEquipment:Electricity:Zone:OPENOFFICE_BOT_3 ZN,hourly; !- [J]
Output:Meter:Cumulative,General:InteriorEquipment:Electricity:Zone:OPENOFFICE_BOT_3 ZN,hourly; !- [J]
Output:Meter,InteriorEquipment:Electricity:Zone:OPENOFFICE_MID_1 ZN,hourly; !- [J]
Output:Meter:Cumulative,InteriorEquipment:Electricity:Zone:OPENOFFICE_MID_1 ZN,hourly; !- [J]
Output:Meter,General:InteriorEquipment:Electricity:Zone:OPENOFFICE_MID_1 ZN,hourly; !- [J]
Output:Meter:Cumulative,General:InteriorEquipment:Electricity:Zone:OPENOFFICE_MID_1 ZN,hourly; !- [J]
Output:Meter,InteriorEquipment:Electricity:Zone:OPENOFFICE_MID_2 ZN,hourly; !- [J]
Output:Meter:Cumulative,InteriorEquipment:Electricity:Zone:OPENOFFICE_MID_2 ZN,hourly; !- [J]
Output:Meter,General:InteriorEquipment:Electricity:Zone:OPENOFFICE_MID_2 ZN,hourly; !- [J]
Output:Meter:Cumulative,General:InteriorEquipment:Electricity:Zone:OPENOFFICE_MID_2 ZN,hourly; !- [J]
Output:Meter,InteriorEquipment:Electricity:Zone:OPENOFFICE_MID_3 ZN,hourly; !- [J]
Output:Meter:Cumulative,InteriorEquipment:Electricity:Zone:OPENOFFICE_MID_3 ZN,hourly; !- [J]
Output:Meter,General:InteriorEquipment:Electricity:Zone:OPENOFFICE_MID_3 ZN,hourly; !- [J]
Output:Meter:Cumulative,General:InteriorEquipment:Electricity:Zone:OPENOFFICE_MID_3 ZN,hourly; !- [J]
Output:Meter,InteriorEquipment:Electricity:Zone:OPENOFFICE_MID_4 ZN,hourly; !- [J]
Output:Meter:Cumulative,InteriorEquipment:Electricity:Zone:OPENOFFICE_MID_4 ZN,hourly; !- [J]
Output:Meter,General:InteriorEquipment:Electricity:Zone:OPENOFFICE_MID_4 ZN,hourly; !- [J]
Output:Meter:Cumulative,General:InteriorEquipment:Electricity:Zone:OPENOFFICE_MID_4 ZN,hourly; !- [J]
Output:Meter,InteriorEquipment:Electricity:Zone:OPENOFFICE_TOP_1 ZN,hourly; !- [J]
Output:Meter:Cumulative,InteriorEquipment:Electricity:Zone:OPENOFFICE_TOP_1 ZN,hourly; !- [J]
Output:Meter,General:InteriorEquipment:Electricity:Zone:OPENOFFICE_TOP_1 ZN,hourly; !- [J]
Output:Meter:Cumulative,General:InteriorEquipment:Electricity:Zone:OPENOFFICE_TOP_1 ZN,hourly; !- [J]
Output:Meter,InteriorEquipment:Electricity:Zone:OPENOFFICE_TOP_2 ZN,hourly; !- [J]
Output:Meter:Cumulative,InteriorEquipment:Electricity:Zone:OPENOFFICE_TOP_2 ZN,hourly; !- [J]
Output:Meter,General:InteriorEquipment:Electricity:Zone:OPENOFFICE_TOP_2 ZN,hourly; !- [J]
Output:Meter:Cumulative,General:InteriorEquipment:Electricity:Zone:OPENOFFICE_TOP_2 ZN,hourly; !- [J]
Output:Meter,InteriorEquipment:Electricity:Zone:OPENOFFICE_TOP_3 ZN,hourly; !- [J]
Output:Meter:Cumulative,InteriorEquipment:Electricity:Zone:OPENOFFICE_TOP_3 ZN,hourly; !- [J]
Output:Meter,General:InteriorEquipment:Electricity:Zone:OPENOFFICE_TOP_3 ZN,hourly; !- [J]
Output:Meter:Cumulative,General:InteriorEquipment:Electricity:Zone:OPENOFFICE_TOP_3 ZN,hourly; !- [J]
Output:Meter,InteriorEquipment:Electricity:Zone:OPENOFFICE_TOP_4 ZN,hourly; !- [J]
Output:Meter:Cumulative,InteriorEquipment:Electricity:Zone:OPENOFFICE_TOP_4 ZN,hourly; !- [J]
Output:Meter,General:InteriorEquipment:Electricity:Zone:OPENOFFICE_TOP_4 ZN,hourly; !- [J]
Output:Meter:Cumulative,General:InteriorEquipment:Electricity:Zone:OPENOFFICE_TOP_4 ZN,hourly; !- [J]
Output:Meter,InteriorEquipment:Electricity:Zone:RESTROOM_BOT ZN,hourly; !- [J]
Output:Meter:Cumulative,InteriorEquipment:Electricity:Zone:RESTROOM_BOT ZN,hourly; !- [J]
Output:Meter,General:InteriorEquipment:Electricity:Zone:RESTROOM_BOT ZN,hourly; !- [J]
Output:Meter:Cumulative,General:InteriorEquipment:Electricity:Zone:RESTROOM_BOT ZN,hourly; !- [J]
Output:Meter,InteriorEquipment:Electricity:Zone:RESTROOM_MID ZN,hourly; !- [J]
Output:Meter:Cumulative,InteriorEquipment:Electricity:Zone:RESTROOM_MID ZN,hourly; !- [J]
Output:Meter,General:InteriorEquipment:Electricity:Zone:RESTROOM_MID ZN,hourly; !- [J]
Output:Meter:Cumulative,General:InteriorEquipment:Electricity:Zone:RESTROOM_MID ZN,hourly; !- [J]
Output:Meter,InteriorEquipment:Electricity:Zone:RESTROOM_TOP ZN,hourly; !- [J]
Output:Meter:Cumulative,InteriorEquipment:Electricity:Zone:RESTROOM_TOP ZN,hourly; !- [J]
Output:Meter,General:InteriorEquipment:Electricity:Zone:RESTROOM_TOP ZN,hourly; !- [J]
Output:Meter:Cumulative,General:InteriorEquipment:Electricity:Zone:RESTROOM_TOP ZN,hourly; !- [J]
Output:Meter,EnergyTransfer:Facility,hourly; !- [J]
Output:Meter:Cumulative,EnergyTransfer:Facility,hourly; !- [J]
Output:Meter,EnergyTransfer:Building,hourly; !- [J]
Output:Meter:Cumulative,EnergyTransfer:Building,hourly; !- [J]
Output:Meter,EnergyTransfer:Zone:ACTIVESTORAGE_BOT_1 ZN,hourly; !- [J]
Output:Meter:Cumulative,EnergyTransfer:Zone:ACTIVESTORAGE_BOT_1 ZN,hourly; !- [J]
Output:Meter,Heating:EnergyTransfer,hourly; !- [J]
Output:Meter:Cumulative,Heating:EnergyTransfer,hourly; !- [J]
Output:Meter,Heating:EnergyTransfer:Zone:ACTIVESTORAGE_BOT_1 ZN,hourly; !- [J]
Output:Meter:Cumulative,Heating:EnergyTransfer:Zone:ACTIVESTORAGE_BOT_1 ZN,hourly; !- [J]
Output:Meter,General:Heating:EnergyTransfer,hourly; !- [J]
Output:Meter:Cumulative,General:Heating:EnergyTransfer,hourly; !- [J]
Output:Meter,General:Heating:EnergyTransfer:Zone:ACTIVESTORAGE_BOT_1 ZN,hourly; !- [J]
Output:Meter:Cumulative,General:Heating:EnergyTransfer:Zone:ACTIVESTORAGE_BOT_1 ZN,hourly; !- [J]
Output:Meter,Cooling:EnergyTransfer,hourly; !- [J]
Output:Meter:Cumulative,Cooling:EnergyTransfer,hourly; !- [J]
Output:Meter,Cooling:EnergyTransfer:Zone:ACTIVESTORAGE_BOT_1 ZN,hourly; !- [J]
Output:Meter:Cumulative,Cooling:EnergyTransfer:Zone:ACTIVESTORAGE_BOT_1 ZN,hourly; !- [J]
Output:Meter,General:Cooling:EnergyTransfer,hourly; !- [J]
Output:Meter:Cumulative,General:Cooling:EnergyTransfer,hourly; !- [J]
Output:Meter,General:Cooling:EnergyTransfer:Zone:ACTIVESTORAGE_BOT_1 ZN,hourly; !- [J]
Output:Meter:Cumulative,General:Cooling:EnergyTransfer:Zone:ACTIVESTORAGE_BOT_1 ZN,hourly; !- [J]
Output:Meter,EnergyTransfer:Zone:ACTIVESTORAGE_BOT_2 ZN,hourly; !- [J]
Output:Meter:Cumulative,EnergyTransfer:Zone:ACTIVESTORAGE_BOT_2 ZN,hourly; !- [J]
Output:Meter,Heating:EnergyTransfer:Zone:ACTIVESTORAGE_BOT_2 ZN,hourly; !- [J]
Output:Meter:Cumulative,Heating:EnergyTransfer:Zone:ACTIVESTORAGE_BOT_2 ZN,hourly; !- [J]
Output:Meter,General:Heating:EnergyTransfer:Zone:ACTIVESTORAGE_BOT_2 ZN,hourly; !- [J]
Output:Meter:Cumulative,General:Heating:EnergyTransfer:Zone:ACTIVESTORAGE_BOT_2 ZN,hourly; !- [J]
Output:Meter,Cooling:EnergyTransfer:Zone:ACTIVESTORAGE_BOT_2 ZN,hourly; !- [J]
Output:Meter:Cumulative,Cooling:EnergyTransfer:Zone:ACTIVESTORAGE_BOT_2 ZN,hourly; !- [J]
Output:Meter,General:Cooling:EnergyTransfer:Zone:ACTIVESTORAGE_BOT_2 ZN,hourly; !- [J]
Output:Meter:Cumulative,General:Cooling:EnergyTransfer:Zone:ACTIVESTORAGE_BOT_2 ZN,hourly; !- [J]
Output:Meter,EnergyTransfer:Zone:ACTIVESTORAGE_BOT_3 ZN,hourly; !- [J]
Output:Meter:Cumulative,EnergyTransfer:Zone:ACTIVESTORAGE_BOT_3 ZN,hourly; !- [J]
Output:Meter,Heating:EnergyTransfer:Zone:ACTIVESTORAGE_BOT_3 ZN,hourly; !- [J]
Output:Meter:Cumulative,Heating:EnergyTransfer:Zone:ACTIVESTORAGE_BOT_3 ZN,hourly; !- [J]
Output:Meter,General:Heating:EnergyTransfer:Zone:ACTIVESTORAGE_BOT_3 ZN,hourly; !- [J]
Output:Meter:Cumulative,General:Heating:EnergyTransfer:Zone:ACTIVESTORAGE_BOT_3 ZN,hourly; !- [J]
Output:Meter,Cooling:EnergyTransfer:Zone:ACTIVESTORAGE_BOT_3 ZN,hourly; !- [J]
Output:Meter:Cumulative,Cooling:EnergyTransfer:Zone:ACTIVESTORAGE_BOT_3 ZN,hourly; !- [J]
Output:Meter,General:Cooling:EnergyTransfer:Zone:ACTIVESTORAGE_BOT_3 ZN,hourly; !- [J]
Output:Meter:Cumulative,General:Cooling:EnergyTransfer:Zone:ACTIVESTORAGE_BOT_3 ZN,hourly; !- [J]
Output:Meter,EnergyTransfer:Zone:ACTIVESTORAGE_BOT_4 ZN,hourly; !- [J]
Output:Meter:Cumulative,EnergyTransfer:Zone:ACTIVESTORAGE_BOT_4 ZN,hourly; !- [J]
Output:Meter,Heating:EnergyTransfer:Zone:ACTIVESTORAGE_BOT_4 ZN,hourly; !- [J]
Output:Meter:Cumulative,Heating:EnergyTransfer:Zone:ACTIVESTORAGE_BOT_4 ZN,hourly; !- [J]
Output:Meter,General:Heating:EnergyTransfer:Zone:ACTIVESTORAGE_BOT_4 ZN,hourly; !- [J]
Output:Meter:Cumulative,General:Heating:EnergyTransfer:Zone:ACTIVESTORAGE_BOT_4 ZN,hourly; !- [J]
Output:Meter,Cooling:EnergyTransfer:Zone:ACTIVESTORAGE_BOT_4 ZN,hourly; !- [J]
Output:Meter:Cumulative,Cooling:EnergyTransfer:Zone:ACTIVESTORAGE_BOT_4 ZN,hourly; !- [J]
Output:Meter,General:Cooling:EnergyTransfer:Zone:ACTIVESTORAGE_BOT_4 ZN,hourly; !- [J]
Output:Meter:Cumulative,General:Cooling:EnergyTransfer:Zone:ACTIVESTORAGE_BOT_4 ZN,hourly; !- [J]
Output:Meter,EnergyTransfer:Zone:ACTIVESTORAGE_MID_1 ZN,hourly; !- [J]
Output:Meter:Cumulative,EnergyTransfer:Zone:ACTIVESTORAGE_MID_1 ZN,hourly; !- [J]
Output:Meter,Heating:EnergyTransfer:Zone:ACTIVESTORAGE_MID_1 ZN,hourly; !- [J]
Output:Meter:Cumulative,Heating:EnergyTransfer:Zone:ACTIVESTORAGE_MID_1 ZN,hourly; !- [J]
Output:Meter,General:Heating:EnergyTransfer:Zone:ACTIVESTORAGE_MID_1 ZN,hourly; !- [J]
Output:Meter:Cumulative,General:Heating:EnergyTransfer:Zone:ACTIVESTORAGE_MID_1 ZN,hourly; !- [J]
Output:Meter,Cooling:EnergyTransfer:Zone:ACTIVESTORAGE_MID_1 ZN,hourly; !- [J]
Output:Meter:Cumulative,Cooling:EnergyTransfer:Zone:ACTIVESTORAGE_MID_1 ZN,hourly; !- [J]
Output:Meter,General:Cooling:EnergyTransfer:Zone:ACTIVESTORAGE_MID_1 ZN,hourly; !- [J]
Output:Meter:Cumulative,General:Cooling:EnergyTransfer:Zone:ACTIVESTORAGE_MID_1 ZN,hourly; !- [J]
Output:Meter,EnergyTransfer:Zone:ACTIVESTORAGE_MID_2 ZN,hourly; !- [J]
Output:Meter:Cumulative,EnergyTransfer:Zone:ACTIVESTORAGE_MID_2 ZN,hourly; !- [J]
Output:Meter,Heating:EnergyTransfer:Zone:ACTIVESTORAGE_MID_2 ZN,hourly; !- [J]
Output:Meter:Cumulative,Heating:EnergyTransfer:Zone:ACTIVESTORAGE_MID_2 ZN,hourly; !- [J]
Output:Meter,General:Heating:EnergyTransfer:Zone:ACTIVESTORAGE_MID_2 ZN,hourly; !- [J]
Output:Meter:Cumulative,General:Heating:EnergyTransfer:Zone:ACTIVESTORAGE_MID_2 ZN,hourly; !- [J]
Output:Meter,Cooling:EnergyTransfer:Zone:ACTIVESTORAGE_MID_2 ZN,hourly; !- [J]
Output:Meter:Cumulative,Cooling:EnergyTransfer:Zone:ACTIVESTORAGE_MID_2 ZN,hourly; !- [J]
Output:Meter,General:Cooling:EnergyTransfer:Zone:ACTIVESTORAGE_MID_2 ZN,hourly; !- [J]
Output:Meter:Cumulative,General:Cooling:EnergyTransfer:Zone:ACTIVESTORAGE_MID_2 ZN,hourly; !- [J]
Output:Meter,EnergyTransfer:Zone:ACTIVESTORAGE_MID_3 ZN,hourly; !- [J]
Output:Meter:Cumulative,EnergyTransfer:Zone:ACTIVESTORAGE_MID_3 ZN,hourly; !- [J]
Output:Meter,Heating:EnergyTransfer:Zone:ACTIVESTORAGE_MID_3 ZN,hourly; !- [J]
Output:Meter:Cumulative,Heating:EnergyTransfer:Zone:ACTIVESTORAGE_MID_3 ZN,hourly; !- [J]
Output:Meter,General:Heating:EnergyTransfer:Zone:ACTIVESTORAGE_MID_3 ZN,hourly; !- [J]
Output:Meter:Cumulative,General:Heating:EnergyTransfer:Zone:ACTIVESTORAGE_MID_3 ZN,hourly; !- [J]
Output:Meter,Cooling:EnergyTransfer:Zone:ACTIVESTORAGE_MID_3 ZN,hourly; !- [J]
Output:Meter:Cumulative,Cooling:EnergyTransfer:Zone:ACTIVESTORAGE_MID_3 ZN,hourly; !- [J]
Output:Meter,General:Cooling:EnergyTransfer:Zone:ACTIVESTORAGE_MID_3 ZN,hourly; !- [J]
Output:Meter:Cumulative,General:Cooling:EnergyTransfer:Zone:ACTIVESTORAGE_MID_3 ZN,hourly; !- [J]
Output:Meter,EnergyTransfer:Zone:ACTIVESTORAGE_MID_4 ZN,hourly; !- [J]
Output:Meter:Cumulative,EnergyTransfer:Zone:ACTIVESTORAGE_MID_4 ZN,hourly; !- [J]
Output:Meter,Heating:EnergyTransfer:Zone:ACTIVESTORAGE_MID_4 ZN,hourly; !- [J]
Output:Meter:Cumulative,Heating:EnergyTransfer:Zone:ACTIVESTORAGE_MID_4 ZN,hourly; !- [J]
Output:Meter,General:Heating:EnergyTransfer:Zone:ACTIVESTORAGE_MID_4 ZN,hourly; !- [J]
Output:Meter:Cumulative,General:Heating:EnergyTransfer:Zone:ACTIVESTORAGE_MID_4 ZN,hourly; !- [J]
Output:Meter,Cooling:EnergyTransfer:Zone:ACTIVESTORAGE_MID_4 ZN,hourly; !- [J]
Output:Meter:Cumulative,Cooling:EnergyTransfer:Zone:ACTIVESTORAGE_MID_4 ZN,hourly; !- [J]
Output:Meter,General:Cooling:EnergyTransfer:Zone:ACTIVESTORAGE_MID_4 ZN,hourly; !- [J]
Output:Meter:Cumulative,General:Cooling:EnergyTransfer:Zone:ACTIVESTORAGE_MID_4 ZN,hourly; !- [J]
Output:Meter,EnergyTransfer:Zone:ACTIVESTORAGE_TOP_1 ZN,hourly; !- [J]
Output:Meter:Cumulative,EnergyTransfer:Zone:ACTIVESTORAGE_TOP_1 ZN,hourly; !- [J]
Output:Meter,Heating:EnergyTransfer:Zone:ACTIVESTORAGE_TOP_1 ZN,hourly; !- [J]
Output:Meter:Cumulative,Heating:EnergyTransfer:Zone:ACTIVESTORAGE_TOP_1 ZN,hourly; !- [J]
Output:Meter,General:Heating:EnergyTransfer:Zone:ACTIVESTORAGE_TOP_1 ZN,hourly; !- [J]
Output:Meter:Cumulative,General:Heating:EnergyTransfer:Zone:ACTIVESTORAGE_TOP_1 ZN,hourly; !- [J]
Output:Meter,Cooling:EnergyTransfer:Zone:ACTIVESTORAGE_TOP_1 ZN,hourly; !- [J]
Output:Meter:Cumulative,Cooling:EnergyTransfer:Zone:ACTIVESTORAGE_TOP_1 ZN,hourly; !- [J]
Output:Meter,General:Cooling:EnergyTransfer:Zone:ACTIVESTORAGE_TOP_1 ZN,hourly; !- [J]
Output:Meter:Cumulative,General:Cooling:EnergyTransfer:Zone:ACTIVESTORAGE_TOP_1 ZN,hourly; !- [J]
Output:Meter,EnergyTransfer:Zone:ACTIVESTORAGE_TOP_2 ZN,hourly; !- [J]
Output:Meter:Cumulative,EnergyTransfer:Zone:ACTIVESTORAGE_TOP_2 ZN,hourly; !- [J]
Output:Meter,Heating:EnergyTransfer:Zone:ACTIVESTORAGE_TOP_2 ZN,hourly; !- [J]
Output:Meter:Cumulative,Heating:EnergyTransfer:Zone:ACTIVESTORAGE_TOP_2 ZN,hourly; !- [J]
Output:Meter,General:Heating:EnergyTransfer:Zone:ACTIVESTORAGE_TOP_2 ZN,hourly; !- [J]
Output:Meter:Cumulative,General:Heating:EnergyTransfer:Zone:ACTIVESTORAGE_TOP_2 ZN,hourly; !- [J]
Output:Meter,Cooling:EnergyTransfer:Zone:ACTIVESTORAGE_TOP_2 ZN,hourly; !- [J]
Output:Meter:Cumulative,Cooling:EnergyTransfer:Zone:ACTIVESTORAGE_TOP_2 ZN,hourly; !- [J]
Output:Meter,General:Cooling:EnergyTransfer:Zone:ACTIVESTORAGE_TOP_2 ZN,hourly; !- [J]
Output:Meter:Cumulative,General:Cooling:EnergyTransfer:Zone:ACTIVESTORAGE_TOP_2 ZN,hourly; !- [J]
Output:Meter,EnergyTransfer:Zone:ACTIVESTORAGE_TOP_3 ZN,hourly; !- [J]
Output:Meter:Cumulative,EnergyTransfer:Zone:ACTIVESTORAGE_TOP_3 ZN,hourly; !- [J]
Output:Meter,Heating:EnergyTransfer:Zone:ACTIVESTORAGE_TOP_3 ZN,hourly; !- [J]
Output:Meter:Cumulative,Heating:EnergyTransfer:Zone:ACTIVESTORAGE_TOP_3 ZN,hourly; !- [J]
Output:Meter,General:Heating:EnergyTransfer:Zone:ACTIVESTORAGE_TOP_3 ZN,hourly; !- [J]
Output:Meter:Cumulative,General:Heating:EnergyTransfer:Zone:ACTIVESTORAGE_TOP_3 ZN,hourly; !- [J]
Output:Meter,Cooling:EnergyTransfer:Zone:ACTIVESTORAGE_TOP_3 ZN,hourly; !- [J]
Output:Meter:Cumulative,Cooling:EnergyTransfer:Zone:ACTIVESTORAGE_TOP_3 ZN,hourly; !- [J]
Output:Meter,General:Cooling:EnergyTransfer:Zone:ACTIVESTORAGE_TOP_3 ZN,hourly; !- [J]
Output:Meter:Cumulative,General:Cooling:EnergyTransfer:Zone:ACTIVESTORAGE_TOP_3 ZN,hourly; !- [J]
Output:Meter,EnergyTransfer:Zone:ACTIVESTORAGE_TOP_4 ZN,hourly; !- [J]
Output:Meter:Cumulative,EnergyTransfer:Zone:ACTIVESTORAGE_TOP_4 ZN,hourly; !- [J]
Output:Meter,Heating:EnergyTransfer:Zone:ACTIVESTORAGE_TOP_4 ZN,hourly; !- [J]
Output:Meter:Cumulative,Heating:EnergyTransfer:Zone:ACTIVESTORAGE_TOP_4 ZN,hourly; !- [J]
Output:Meter,General:Heating:EnergyTransfer:Zone:ACTIVESTORAGE_TOP_4 ZN,hourly; !- [J]
Output:Meter:Cumulative,General:Heating:EnergyTransfer:Zone:ACTIVESTORAGE_TOP_4 ZN,hourly; !- [J]
Output:Meter,Cooling:EnergyTransfer:Zone:ACTIVESTORAGE_TOP_4 ZN,hourly; !- [J]
Output:Meter:Cumulative,Cooling:EnergyTransfer:Zone:ACTIVESTORAGE_TOP_4 ZN,hourly; !- [J]
Output:Meter,General:Cooling:EnergyTransfer:Zone:ACTIVESTORAGE_TOP_4 ZN,hourly; !- [J]
[...]
Output:Meter:Cumulative,General:Cooling:EnergyTransfer:Zone:MECHANICAL_BOT ZN,hourly; !- [J]
Output:Meter,EnergyTransfer:Zone:MECHANICAL_MID ZN,hourly; !- [J]
Output:Meter:Cumulative,EnergyTransfer:Zone:MECHANICAL_MID ZN,hourly; !- [J]
Output:Meter,Heating:EnergyTransfer:Zone:MECHANICAL_MID ZN,hourly; !- [J]
Output:Meter:Cumulative,Heating:EnergyTransfer:Zone:MECHANICAL_MID ZN,hourly; !- [J]
Output:Meter,General:Heating:EnergyTransfer:Zone:MECHANICAL_MID ZN,hourly; !- [J]
Output:Meter:Cumulative,General:Heating:EnergyTransfer:Zone:MECHANICAL_MID ZN,hourly; !- [J]
Output:Meter,Cooling:EnergyTransfer:Zone:MECHANICAL_MID ZN,hourly; !- [J]
Output:Meter:Cumulative,Cooling:EnergyTransfer:Zone:MECHANICAL_MID ZN,hourly; !- [J]
Output:Meter,General:Cooling:EnergyTransfer:Zone:MECHANICAL_MID ZN,hourly; !- [J]
Output:Meter:Cumulative,General:Cooling:EnergyTransfer:Zone:MECHANICAL_MID ZN,hourly; !- [J]
Output:Meter,EnergyTransfer:Zone:MECHANICAL_TOP ZN,hourly; !- [J]
Output:Meter:Cumulative,EnergyTransfer:Zone:MECHANICAL_TOP ZN,hourly; !- [J]
Output:Meter,Heating:EnergyTransfer:Zone:MECHANICAL_TOP ZN,hourly; !- [J]
Output:Meter:Cumulative,Heating:EnergyTransfer:Zone:MECHANICAL_TOP ZN,hourly; !- [J]
Output:Meter,General:Heating:EnergyTransfer:Zone:MECHANICAL_TOP ZN,hourly; !- [J]
Output:Meter:Cumulative,General:Heating:EnergyTransfer:Zone:MECHANICAL_TOP ZN,hourly; !- [J]
Output:Meter,Cooling:EnergyTransfer:Zone:MECHANICAL_TOP ZN,hourly; !- [J]
Output:Meter:Cumulative,Cooling:EnergyTransfer:Zone:MECHANICAL_TOP ZN,hourly; !- [J]
Output:Meter,General:Cooling:EnergyTransfer:Zone:MECHANICAL_TOP ZN,hourly; !- [J]
Output:Meter:Cumulative,General:Cooling:EnergyTransfer:Zone:MECHANICAL_TOP ZN,hourly; !- [J]
Output:Meter,EnergyTransfer:Zone:MIDFLOOR_PLENUM ZN,hourly; !- [J]
Output:Meter:Cumulative,EnergyTransfer:Zone:MIDFLOOR_PLENUM ZN,hourly; !- [J]
Output:Meter,Heating:EnergyTransfer:Zone:MIDFLOOR_PLENUM ZN,hourly; !- [J]
Output:Meter:Cumulative,Heating:EnergyTransfer:Zone:MIDFLOOR_PLENUM ZN,hourly; !- [J]
Output:Meter,General:Heating:EnergyTransfer:Zone:MIDFLOOR_PLENUM ZN,hourly; !- [J]
Output:Meter:Cumulative,General:Heating:EnergyTransfer:Zone:MIDFLOOR_PLENUM ZN,hourly; !- [J]
Output:Meter,Cooling:EnergyTransfer:Zone:MIDFLOOR_PLENUM ZN,hourly; !- [J]
Output:Meter:Cumulative,Cooling:EnergyTransfer:Zone:MIDFLOOR_PLENUM ZN,hourly; !- [J]
Output:Meter,General:Cooling:EnergyTransfer:Zone:MIDFLOOR_PLENUM ZN,hourly; !- [J]
Output:Meter:Cumulative,General:Cooling:EnergyTransfer:Zone:MIDFLOOR_PLENUM ZN,hourly; !- [J]
Output:Meter,EnergyTransfer:Zone:OPENOFFICE_BOT_1 ZN,hourly; !- [J]
Output:Meter:Cumulative,EnergyTransfer:Zone:OPENOFFICE_BOT_1 ZN,hourly; !- [J]
Output:Meter,Heating:EnergyTransfer:Zone:OPENOFFICE_BOT_1 ZN,hourly; !- [J]
Output:Meter:Cumulative,Heating:EnergyTransfer:Zone:OPENOFFICE_BOT_1 ZN,hourly; !- [J]
Output:Meter,General:Heating:EnergyTransfer:Zone:OPENOFFICE_BOT_1 ZN,hourly; !- [J]
Output:Meter:Cumulative,General:Heating:EnergyTransfer:Zone:OPENOFFICE_BOT_1 ZN,hourly; !- [J]
Output:Meter,Cooling:EnergyTransfer:Zone:OPENOFFICE_BOT_1 ZN,hourly; !- [J]
Output:Meter:Cumulative,Cooling:EnergyTransfer:Zone:OPENOFFICE_BOT_1 ZN,hourly; !- [J]
Output:Meter,General:Cooling:EnergyTransfer:Zone:OPENOFFICE_BOT_1 ZN,hourly; !- [J]
Output:Meter:Cumulative,General:Cooling:EnergyTransfer:Zone:OPENOFFICE_BOT_1 ZN,hourly; !- [J]
Output:Meter,EnergyTransfer:Zone:OPENOFFICE_BOT_2 ZN,hourly; !- [J]
Output:Meter:Cumulative,EnergyTransfer:Zone:OPENOFFICE_BOT_2 ZN,hourly; !- [J]
Output:Meter,Heating:EnergyTransfer:Zone:OPENOFFICE_BOT_2 ZN,hourly; !- [J]
Output:Meter:Cumulative,Heating:EnergyTransfer:Zone:OPENOFFICE_BOT_2 ZN,hourly; !- [J]
Output:Meter,General:Heating:EnergyTransfer:Zone:OPENOFFICE_BOT_2 ZN,hourly; !- [J]
Output:Meter:Cumulative,General:Heating:EnergyTransfer:Zone:OPENOFFICE_BOT_2 ZN,hourly; !- [J]
Output:Meter,Cooling:EnergyTransfer:Zone:OPENOFFICE_BOT_2 ZN,hourly; !- [J]
Output:Meter:Cumulative,Cooling:EnergyTransfer:Zone:OPENOFFICE_BOT_2 ZN,hourly; !- [J]
Output:Meter,General:Cooling:EnergyTransfer:Zone:OPENOFFICE_BOT_2 ZN,hourly; !- [J]
Output:Meter:Cumulative,General:Cooling:EnergyTransfer:Zone:OPENOFFICE_BOT_2 ZN,hourly; !- [J]
Output:Meter,EnergyTransfer:Zone:OPENOFFICE_BOT_3 ZN,hourly; !- [J]
Output:Meter:Cumulative,EnergyTransfer:Zone:OPENOFFICE_BOT_3 ZN,hourly; !- [J]
Output:Meter,Heating:EnergyTransfer:Zone:OPENOFFICE_BOT_3 ZN,hourly; !- [J]
Output:Meter:Cumulative,Heating:EnergyTransfer:Zone:OPENOFFICE_BOT_3 ZN,hourly; !- [J]
Output:Meter,General:Heating:EnergyTransfer:Zone:OPENOFFICE_BOT_3 ZN,hourly; !- [J]
Output:Meter:Cumulative,General:Heating:EnergyTransfer:Zone:OPENOFFICE_BOT_3 ZN,hourly; !- [J]
Output:Meter,Cooling:EnergyTransfer:Zone:OPENOFFICE_BOT_3 ZN,hourly; !- [J]
Output:Meter:Cumulative,Cooling:EnergyTransfer:Zone:OPENOFFICE_BOT_3 ZN,hourly; !- [J]
Output:Meter,General:Cooling:EnergyTransfer:Zone:OPENOFFICE_BOT_3 ZN,hourly; !- [J]
Output:Meter:Cumulative,General:Cooling:EnergyTransfer:Zone:OPENOFFICE_BOT_3 ZN,hourly; !- [J]
Output:Meter,EnergyTransfer:Zone:OPENOFFICE_MID_1 ZN,hourly; !- [J]
Output:Meter:Cumulative,EnergyTransfer:Zone:OPENOFFICE_MID_1 ZN,hourly; !- [J]
Output:Meter,Heating:EnergyTransfer:Zone:OPENOFFICE_MID_1 ZN,hourly; !- [J]
Output:Meter:Cumulative,Heating:EnergyTransfer:Zone:OPENOFFICE_MID_1 ZN,hourly; !- [J]
Output:Meter,General:Heating:EnergyTransfer:Zone:OPENOFFICE_MID_1 ZN,hourly; !- [J]
Output:Meter:Cumulative,General:Heating:EnergyTransfer:Zone:OPENOFFICE_MID_1 ZN,hourly; !- [J]
Output:Meter,Cooling:EnergyTransfer:Zone:OPENOFFICE_MID_1 ZN,hourly; !- [J]
Output:Meter:Cumulative,Cooling:EnergyTransfer:Zone:OPENOFFICE_MID_1 ZN,hourly; !- [J]
Output:Meter,General:Cooling:EnergyTransfer:Zone:OPENOFFICE_MID_1 ZN,hourly; !- [J]
Output:Meter:Cumulative,General:Cooling:EnergyTransfer:Zone:OPENOFFICE_MID_1 ZN,hourly; !- [J]
Output:Meter,EnergyTransfer:Zone:OPENOFFICE_MID_2 ZN,hourly; !- [J]
Output:Meter:Cumulative,EnergyTransfer:Zone:OPENOFFICE_MID_2 ZN,hourly; !- [J]
Output:Meter,Heating:EnergyTransfer:Zone:OPENOFFICE_MID_2 ZN,hourly; !- [J]
Output:Meter:Cumulative,Heating:EnergyTransfer:Zone:OPENOFFICE_MID_2 ZN,hourly; !- [J]
Output:Meter,General:Heating:EnergyTransfer:Zone:OPENOFFICE_MID_2 ZN,hourly; !- [J]
Output:Meter:Cumulative,General:Heating:EnergyTransfer:Zone:OPENOFFICE_MID_2 ZN,hourly; !- [J]
Output:Meter,Cooling:EnergyTransfer:Zone:OPENOFFICE_MID_2 ZN,hourly; !- [J]
Output:Meter:Cumulative,Cooling:EnergyTransfer:Zone:OPENOFFICE_MID_2 ZN,hourly; !- [J]
Output:Meter,General:Cooling:EnergyTransfer:Zone:OPENOFFICE_MID_2 ZN,hourly; !- [J]
Output:Meter:Cumulative,General:Cooling:EnergyTransfer:Zone:OPENOFFICE_MID_2 ZN,hourly; !- [J]
Output:Meter,EnergyTransfer:Zone:OPENOFFICE_MID_3 ZN,hourly; !- [J]
Output:Meter:Cumulative,EnergyTransfer:Zone:OPENOFFICE_MID_3 ZN,hourly; !- [J]
Output:Meter,Heating:EnergyTransfer:Zone:OPENOFFICE_MID_3 ZN,hourly; !- [J]
Output:Meter:Cumulative,Heating:EnergyTransfer:Zone:OPENOFFICE_MID_3 ZN,hourly; !- [J]
Output:Meter,General:Heating:EnergyTransfer:Zone:OPENOFFICE_MID_3 ZN,hourly; !- [J]
Output:Meter:Cumulative,General:Heating:EnergyTransfer:Zone:OPENOFFICE_MID_3 ZN,hourly; !- [J]
Output:Meter,Cooling:EnergyTransfer:Zone:OPENOFFICE_MID_3 ZN,hourly; !- [J]
Output:Meter:Cumulative,Cooling:EnergyTransfer:Zone:OPENOFFICE_MID_3 ZN,hourly; !- [J]
Output:Meter,General:Cooling:EnergyTransfer:Zone:OPENOFFICE_MID_3 ZN,hourly; !- [J]
Output:Meter:Cumulative,General:Cooling:EnergyTransfer:Zone:OPENOFFICE_MID_3 ZN,hourly; !- [J]
Output:Meter,EnergyTransfer:Zone:OPENOFFICE_MID_4 ZN,hourly; !- [J]
Output:Meter:Cumulative,EnergyTransfer:Zone:OPENOFFICE_MID_4 ZN,hourly; !- [J]
Output:Meter,Heating:EnergyTransfer:Zone:OPENOFFICE_MID_4 ZN,hourly; !- [J]
Output:Meter:Cumulative,Heating:EnergyTransfer:Zone:OPENOFFICE_MID_4 ZN,hourly; !- [J]
Output:Meter,General:Heating:EnergyTransfer:Zone:OPENOFFICE_MID_4 ZN,hourly; !- [J]
Output:Meter:Cumulative,General:Heating:EnergyTransfer:Zone:OPENOFFICE_MID_4 ZN,hourly; !- [J]
Output:Meter,Cooling:EnergyTransfer:Zone:OPENOFFICE_MID_4 ZN,hourly; !- [J]
Output:Meter:Cumulative,Cooling:EnergyTransfer:Zone:OPENOFFICE_MID_4 ZN,hourly; !- [J]
Output:Meter,General:Cooling:EnergyTransfer:Zone:OPENOFFICE_MID_4 ZN,hourly; !- [J]
Output:Meter:Cumulative,General:Cooling:EnergyTransfer:Zone:OPENOFFICE_MID_4 ZN,hourly; !- [J]
Output:Meter,EnergyTransfer:Zone:OPENOFFICE_TOP_1 ZN,hourly; !- [J]
Output:Meter:Cumulative,EnergyTransfer:Zone:OPENOFFICE_TOP_1 ZN,hourly; !- [J]
Output:Meter,Heating:EnergyTransfer:Zone:OPENOFFICE_TOP_1 ZN,hourly; !- [J]
Output:Meter:Cumulative,Heating:EnergyTransfer:Zone:OPENOFFICE_TOP_1 ZN,hourly; !- [J]
Output:Meter,General:Heating:EnergyTransfer:Zone:OPENOFFICE_TOP_1 ZN,hourly; !- [J]
Output:Meter:Cumulative,General:Heating:EnergyTransfer:Zone:OPENOFFICE_TOP_1 ZN,hourly; !- [J]
Output:Meter,Cooling:EnergyTransfer:Zone:OPENOFFICE_TOP_1 ZN,hourly; !- [J]
Output:Meter:Cumulative,Cooling:EnergyTransfer:Zone:OPENOFFICE_TOP_1 ZN,hourly; !- [J]
Output:Meter,General:Cooling:EnergyTransfer:Zone:OPENOFFICE_TOP_1 ZN,hourly; !- [J]
Output:Meter:Cumulative,General:Cooling:EnergyTransfer:Zone:OPENOFFICE_TOP_1 ZN,hourly; !- [J]
Output:Meter,EnergyTransfer:Zone:OPENOFFICE_TOP_2 ZN,hourly; !- [J]
Output:Meter:Cumulative,EnergyTransfer:Zone:OPENOFFICE_TOP_2 ZN,hourly; !- [J]
Output:Meter,Heating:EnergyTransfer:Zone:OPENOFFICE_TOP_2 ZN,hourly; !- [J]
Output:Meter:Cumulative,Heating:EnergyTransfer:Zone:OPENOFFICE_TOP_2 ZN,hourly; !- [J]
Output:Meter,General:Heating:EnergyTransfer:Zone:OPENOFFICE_TOP_2 ZN,hourly; !- [J]
Output:Meter:Cumulative,General:Heating:EnergyTransfer:Zone:OPENOFFICE_TOP_2 ZN,hourly; !- [J]
Output:Meter,Cooling:EnergyTransfer:Zone:OPENOFFICE_TOP_2 ZN,hourly; !- [J]
Output:Meter:Cumulative,Cooling:EnergyTransfer:Zone:OPENOFFICE_TOP_2 ZN,hourly; !- [J]
Output:Meter,General:Cooling:EnergyTransfer:Zone:OPENOFFICE_TOP_2 ZN,hourly; !- [J]
Output:Meter:Cumulative,General:Cooling:EnergyTransfer:Zone:OPENOFFICE_TOP_2 ZN,hourly; !- [J]
Output:Meter,EnergyTransfer:Zone:OPENOFFICE_TOP_3 ZN,hourly; !- [J]
Output:Meter:Cumulative,EnergyTransfer:Zone:OPENOFFICE_TOP_3 ZN,hourly; !- [J]
Output:Meter,Heating:EnergyTransfer:Zone:OPENOFFICE_TOP_3 ZN,hourly; !- [J]
Output:Meter:Cumulative,Heating:EnergyTransfer:Zone:OPENOFFICE_TOP_3 ZN,hourly; !- [J]
Output:Meter,General:Heating:EnergyTransfer:Zone:OPENOFFICE_TOP_3 ZN,hourly; !- [J]
Output:Meter:Cumulative,General:Heating:EnergyTransfer:Zone:OPENOFFICE_TOP_3 ZN,hourly; !- [J]
Output:Meter,Cooling:EnergyTransfer:Zone:OPENOFFICE_TOP_3 ZN,hourly; !- [J]
Output:Meter:Cumulative,Cooling:EnergyTransfer:Zone:OPENOFFICE_TOP_3 ZN,hourly; !- [J]
Output:Meter,General:Cooling:EnergyTransfer:Zone:OPENOFFICE_TOP_3 ZN,hourly; !- [J]
Output:Meter:Cumulative,General:Cooling:EnergyTransfer:Zone:OPENOFFICE_TOP_3 ZN,hourly; !- [J]
Output:Meter,EnergyTransfer:Zone:OPENOFFICE_TOP_4 ZN,hourly; !- [J]
Output:Meter:Cumulative,EnergyTransfer:Zone:OPENOFFICE_TOP_4 ZN,hourly; !- [J]
Output:Meter,Heating:EnergyTransfer:Zone:OPENOFFICE_TOP_4 ZN,hourly; !- [J]
Output:Meter:Cumulative,Heating:EnergyTransfer:Zone:OPENOFFICE_TOP_4 ZN,hourly; !- [J]
Output:Meter,General:Heating:EnergyTransfer:Zone:OPENOFFICE_TOP_4 ZN,hourly; !- [J]
Output:Meter:Cumulative,General:Heating:EnergyTransfer:Zone:OPENOFFICE_TOP_4 ZN,hourly; !- [J]
Output:Meter,Cooling:EnergyTransfer:Zone:OPENOFFICE_TOP_4 ZN,hourly; !- [J]
Output:Meter:Cumulative,Cooling:EnergyTransfer:Zone:OPENOFFICE_TOP_4 ZN,hourly; !- [J]
Output:Meter,General:Cooling:EnergyTransfer:Zone:OPENOFFICE_TOP_4 ZN,hourly; !- [J]
Output:Meter:Cumulative,General:Cooling:EnergyTransfer:Zone:OPENOFFICE_TOP_4 ZN,hourly; !- [J]
Output:Meter,EnergyTransfer:Zone:RESTROOM_BOT ZN,hourly; !- [J]
Output:Meter:Cumulative,EnergyTransfer:Zone:RESTROOM_BOT ZN,hourly; !- [J]
Output:Meter,Heating:EnergyTransfer:Zone:RESTROOM_BOT ZN,hourly; !- [J]
Output:Meter:Cumulative,Heating:EnergyTransfer:Zone:RESTROOM_BOT ZN,hourly; !- [J]
Output:Meter,General:Heating:EnergyTransfer:Zone:RESTROOM_BOT ZN,hourly; !- [J]
Output:Meter:Cumulative,General:Heating:EnergyTransfer:Zone:RESTROOM_BOT ZN,hourly; !- [J]
Output:Meter,Cooling:EnergyTransfer:Zone:RESTROOM_BOT ZN,hourly; !- [J]
Output:Meter:Cumulative,Cooling:EnergyTransfer:Zone:RESTROOM_BOT ZN,hourly; !- [J]
Output:Meter,General:Cooling:EnergyTransfer:Zone:RESTROOM_BOT ZN,hourly; !- [J]
Output:Meter:Cumulative,General:Cooling:EnergyTransfer:Zone:RESTROOM_BOT ZN,hourly; !- [J]
Output:Meter,EnergyTransfer:Zone:RESTROOM_MID ZN,hourly; !- [J]
Output:Meter:Cumulative,EnergyTransfer:Zone:RESTROOM_MID ZN,hourly; !- [J]
Output:Meter,Heating:EnergyTransfer:Zone:RESTROOM_MID ZN,hourly; !- [J]
Output:Meter:Cumulative,Heating:EnergyTransfer:Zone:RESTROOM_MID ZN,hourly; !- [J]
Output:Meter,General:Heating:EnergyTransfer:Zone:RESTROOM_MID ZN,hourly; !- [J]
Output:Meter:Cumulative,General:Heating:EnergyTransfer:Zone:RESTROOM_MID ZN,hourly; !- [J]
Output:Meter,Cooling:EnergyTransfer:Zone:RESTROOM_MID ZN,hourly; !- [J]
Output:Meter:Cumulative,Cooling:EnergyTransfer:Zone:RESTROOM_MID ZN,hourly; !- [J]
Output:Meter,General:Cooling:EnergyTransfer:Zone:RESTROOM_MID ZN,hourly; !- [J]
Output:Meter:Cumulative,General:Cooling:EnergyTransfer:Zone:RESTROOM_MID ZN,hourly; !- [J]
Output:Meter,EnergyTransfer:Zone:RESTROOM_TOP ZN,hourly; !- [J]
Output:Meter:Cumulative,EnergyTransfer:Zone:RESTROOM_TOP ZN,hourly; !- [J]
Output:Meter,Heating:EnergyTransfer:Zone:RESTROOM_TOP ZN,hourly; !- [J]
Output:Meter:Cumulative,Heating:EnergyTransfer:Zone:RESTROOM_TOP ZN,hourly; !- [J]
Output:Meter,General:Heating:EnergyTransfer:Zone:RESTROOM_TOP ZN,hourly; !- [J]
Output:Meter:Cumulative,General:Heating:EnergyTransfer:Zone:RESTROOM_TOP ZN,hourly; !- [J]
Output:Meter,Cooling:EnergyTransfer:Zone:RESTROOM_TOP ZN,hourly; !- [J]
Output:Meter:Cumulative,Cooling:EnergyTransfer:Zone:RESTROOM_TOP ZN,hourly; !- [J]
Output:Meter,General:Cooling:EnergyTransfer:Zone:RESTROOM_TOP ZN,hourly; !- [J]
Output:Meter:Cumulative,General:Cooling:EnergyTransfer:Zone:RESTROOM_TOP ZN,hourly; !- [J]
Output:Meter,EnergyTransfer:Zone:STAIR_BOT_1 ZN,hourly; !- [J]
Output:Meter:Cumulative,EnergyTransfer:Zone:STAIR_BOT_1 ZN,hourly; !- [J]
Output:Meter,Heating:EnergyTransfer:Zone:STAIR_BOT_1 ZN,hourly; !- [J]
Output:Meter:Cumulative,Heating:EnergyTransfer:Zone:STAIR_BOT_1 ZN,hourly; !- [J]
Output:Meter,General:Heating:EnergyTransfer:Zone:STAIR_BOT_1 ZN,hourly; !- [J]
Output:Meter:Cumulative,General:Heating:EnergyTransfer:Zone:STAIR_BOT_1 ZN,hourly; !- [J]
Output:Meter,Cooling:EnergyTransfer:Zone:STAIR_BOT_1 ZN,hourly; !- [J]
Output:Meter:Cumulative,Cooling:EnergyTransfer:Zone:STAIR_BOT_1 ZN,hourly; !- [J]
Output:Meter,General:Cooling:EnergyTransfer:Zone:STAIR_BOT_1 ZN,hourly; !- [J]
Output:Meter:Cumulative,General:Cooling:EnergyTransfer:Zone:STAIR_BOT_1 ZN,hourly; !- [J]
Output:Meter,EnergyTransfer:Zone:STAIR_BOT_2 ZN,hourly; !- [J]
Output:Meter:Cumulative,EnergyTransfer:Zone:STAIR_BOT_2 ZN,hourly; !- [J]
Output:Meter,Heating:EnergyTransfer:Zone:STAIR_BOT_2 ZN,hourly; !- [J]
Output:Meter:Cumulative,Heating:EnergyTransfer:Zone:STAIR_BOT_2 ZN,hourly; !- [J]
Output:Meter,General:Heating:EnergyTransfer:Zone:STAIR_BOT_2 ZN,hourly; !- [J]
Output:Meter:Cumulative,General:Heating:EnergyTransfer:Zone:STAIR_BOT_2 ZN,hourly; !- [J]
Output:Meter,Cooling:EnergyTransfer:Zone:STAIR_BOT_2 ZN,hourly; !- [J]
Output:Meter:Cumulative,Cooling:EnergyTransfer:Zone:STAIR_BOT_2 ZN,hourly; !- [J]
Output:Meter,General:Cooling:EnergyTransfer:Zone:STAIR_BOT_2 ZN,hourly; !- [J]
Output:Meter:Cumulative,General:Cooling:EnergyTransfer:Zone:STAIR_BOT_2 ZN,hourly; !- [J]
Output:Meter,EnergyTransfer:Zone:STAIR_MID_1 ZN,hourly; !- [J]
Output:Meter:Cumulative,EnergyTransfer:Zone:STAIR_MID_1 ZN,hourly; !- [J]
Output:Meter,Heating:EnergyTransfer:Zone:STAIR_MID_1 ZN,hourly; !- [J]
Output:Meter:Cumulative,Heating:EnergyTransfer:Zone:STAIR_MID_1 ZN,hourly; !- [J]
Output:Meter,General:Heating:EnergyTransfer:Zone:STAIR_MID_1 ZN,hourly; !- [J]
Output:Meter:Cumulative,General:Heating:EnergyTransfer:Zone:STAIR_MID_1 ZN,hourly; !- [J]
Output:Meter,Cooling:EnergyTransfer:Zone:STAIR_MID_1 ZN,hourly; !- [J]
Output:Meter:Cumulative,Cooling:EnergyTransfer:Zone:STAIR_MID_1 ZN,hourly; !- [J]
Output:Meter,General:Cooling:EnergyTransfer:Zone:STAIR_MID_1 ZN,hourly; !- [J]
Output:Meter:Cumulative,General:Cooling:EnergyTransfer:Zone:STAIR_MID_1 ZN,hourly; !- [J]
Output:Meter,EnergyTransfer:Zone:STAIR_MID_2 ZN,hourly; !- [J]
Output:Meter:Cumulative,EnergyTransfer:Zone:STAIR_MID_2 ZN,hourly; !- [J]
Output:Meter,Heating:EnergyTransfer:Zone:STAIR_MID_2 ZN,hourly; !- [J]
Output:Meter:Cumulative,Heating:EnergyTransfer:Zone:STAIR_MID_2 ZN,hourly; !- [J]
Output:Meter,General:Heating:EnergyTransfer:Zone:STAIR_MID_2 ZN,hourly; !- [J]
Output:Meter:Cumulative,General:Heating:EnergyTransfer:Zone:STAIR_MID_2 ZN,hourly; !- [J]
Output:Meter,Cooling:EnergyTransfer:Zone:STAIR_MID_2 ZN,hourly; !- [J]
Output:Meter:Cumulative,Cooling:EnergyTransfer:Zone:STAIR_MID_2 ZN,hourly; !- [J]
Output:Meter,General:Cooling:EnergyTransfer:Zone:STAIR_MID_2 ZN,hourly; !- [J]
Output:Meter:Cumulative,General:Cooling:EnergyTransfer:Zone:STAIR_MID_2 ZN,hourly; !- [J]
Output:Meter,EnergyTransfer:Zone:STAIR_TOP_1 ZN,hourly; !- [J]
Output:Meter:Cumulative,EnergyTransfer:Zone:STAIR_TOP_1 ZN,hourly; !- [J]
Output:Meter,Heating:EnergyTransfer:Zone:STAIR_TOP_1 ZN,hourly; !- [J]
Output:Meter:Cumulative,Heating:EnergyTransfer:Zone:STAIR_TOP_1 ZN,hourly; !- [J]
Output:Meter,General:Heating:EnergyTransfer:Zone:STAIR_TOP_1 ZN,hourly; !- [J]
Output:Meter:Cumulative,General:Heating:EnergyTransfer:Zone:STAIR_TOP_1 ZN,hourly; !- [J]
Output:Meter,Cooling:EnergyTransfer:Zone:STAIR_TOP_1 ZN,hourly; !- [J]
Output:Meter:Cumulative,Cooling:EnergyTransfer:Zone:STAIR_TOP_1 ZN,hourly; !- [J]
Output:Meter,General:Cooling:EnergyTransfer:Zone:STAIR_TOP_1 ZN,hourly; !- [J]
Output:Meter:Cumulative,General:Cooling:EnergyTransfer:Zone:STAIR_TOP_1 ZN,hourly; !- [J]
Output:Meter,EnergyTransfer:Zone:STAIR_TOP_2 ZN,hourly; !- [J]
Output:Meter:Cumulative,EnergyTransfer:Zone:STAIR_TOP_2 ZN,hourly; !- [J]
Output:Meter,Heating:EnergyTransfer:Zone:STAIR_TOP_2 ZN,hourly; !- [J]
Output:Meter:Cumulative,Heating:EnergyTransfer:Zone:STAIR_TOP_2 ZN,hourly; !- [J]
Output:Meter,General:Heating:EnergyTransfer:Zone:STAIR_TOP_2 ZN,hourly; !- [J]
Output:Meter:Cumulative,General:Heating:EnergyTransfer:Zone:STAIR_TOP_2 ZN,hourly; !- [J]
Output:Meter,Cooling:EnergyTransfer:Zone:STAIR_TOP_2 ZN,hourly; !- [J]
Output:Meter:Cumulative,Cooling:EnergyTransfer:Zone:STAIR_TOP_2 ZN,hourly; !- [J]
Output:Meter,General:Cooling:EnergyTransfer:Zone:STAIR_TOP_2 ZN,hourly; !- [J]
Output:Meter:Cumulative,General:Cooling:EnergyTransfer:Zone:STAIR_TOP_2 ZN,hourly; !- [J]
Output:Meter,EnergyTransfer:Zone:TOPFLOOR_PLENUM ZN,hourly; !- [J]
Output:Meter:Cumulative,EnergyTransfer:Zone:TOPFLOOR_PLENUM ZN,hourly; !- [J]
Output:Meter,Heating:EnergyTransfer:Zone:TOPFLOOR_PLENUM ZN,hourly; !- [J]
Output:Meter:Cumulative,Heating:EnergyTransfer:Zone:TOPFLOOR_PLENUM ZN,hourly; !- [J]
Output:Meter,General:Heating:EnergyTransfer:Zone:TOPFLOOR_PLENUM ZN,hourly; !- [J]
Output:Meter:Cumulative,General:Heating:EnergyTransfer:Zone:TOPFLOOR_PLENUM ZN,hourly; !- [J]
Output:Meter,Cooling:EnergyTransfer:Zone:TOPFLOOR_PLENUM ZN,hourly; !- [J]
Output:Meter:Cumulative,Cooling:EnergyTransfer:Zone:TOPFLOOR_PLENUM ZN,hourly; !- [J]
Output:Meter,General:Cooling:EnergyTransfer:Zone:TOPFLOOR_PLENUM ZN,hourly; !- [J]
Output:Meter:Cumulative,General:Cooling:EnergyTransfer:Zone:TOPFLOOR_PLENUM ZN,hourly; !- [J]
Output:Meter,Carbon Equivalent:Facility,hourly; !- [kg]
Output:Meter:Cumulative,Carbon Equivalent:Facility,hourly; !- [kg]
Output:Meter,CarbonEquivalentEmissions:Carbon Equivalent,hourly; !- [kg]
Output:Meter:Cumulative,CarbonEquivalentEmissions:Carbon Equivalent,hourly; !- [kg]
Output:Meter,WIRED_INT_EQUIP,hourly; !- [J]
Output:Meter:Cumulative,WIRED_INT_EQUIP,hourly; !- [J]
