Program Version,EnergyPlus, Version 9.6.0-316f894e91, YMD=2026.02.17 17:11
! <Version>, Version ID
 Version, 9.6
! <Timesteps per Hour>, #TimeSteps, Minutes per TimeStep {minutes}
 Timesteps per Hour,  6, 10
! <System Convergence Limits>, Minimum System TimeStep {minutes}, Max HVAC Iterations, Minimum Plant Iterations, Maximum Plant Iterations
 System Convergence Limits, 1, 20, 2, 8
! <Simulation Control>, Do Zone Sizing, Do System Sizing, Do Plant Sizing, Do Design Days, Do Weather Simulation, Do HVAC Sizing Simulation
 Simulation Control, No, No, No, No, Yes, No
! <Performance Precision Tradeoffs>, Use Coil Direct Simulation, Zone Radiant Exchange Algorithm, Override Mode, Number of Timestep In Hour, Force Euler Method, Minimum Number of Warmup Days, Force Suppress All Begin Environment Resets, Minimum System Timestep, MaxZoneTempDiff, MaxAllowedDelTemp
 Performance Precision Tradeoffs, No, ScriptF, Normal, 6, No, 1, No, 1.0, 0.300, 1.0000E-006
! <Output Reporting Tolerances>, Tolerance for Time Heating Setpoint Not Met, Tolerance for Zone Cooling Setpoint Not Met Time
 Output Reporting Tolerances, 0.200, 0.200, 
! <Site:GroundTemperature:BuildingSurface>,Jan{C},Feb{C},Mar{C},Apr{C},May{C},Jun{C},Jul{C},Aug{C},Sep{C},Oct{C},Nov{C},Dec{C}
 Site:GroundTemperature:BuildingSurface,  18.00,  18.00,  18.00,  18.00,  18.00,  18.00,  18.00,  18.00,  18.00,  18.00,  18.00,  18.00
! <Site:GroundTemperature:FCfactorMethod>,Jan{C},Feb{C},Mar{C},Apr{C},May{C},Jun{C},Jul{C},Aug{C},Sep{C},Oct{C},Nov{C},Dec{C}
 Site:GroundTemperature:FCfactorMethod,   9.70,   6.00,  -2.20,  -3.40,  -4.20,   2.70,   7.50,  13.70,  18.60,  22.00,  20.70,  16.50
! <Site:GroundTemperature:Shallow>,Jan{C},Feb{C},Mar{C},Apr{C},May{C},Jun{C},Jul{C},Aug{C},Sep{C},Oct{C},Nov{C},Dec{C}
 Site:GroundTemperature:Shallow,  13.00,  13.00,  13.00,  13.00,  13.00,  13.00,  13.00,  13.00,  13.00,  13.00,  13.00,  13.00
! <Site:GroundTemperature:Deep>,Jan{C},Feb{C},Mar{C},Apr{C},May{C},Jun{C},Jul{C},Aug{C},Sep{C},Oct{C},Nov{C},Dec{C}
 Site:GroundTemperature:Deep,  16.00,  16.00,  16.00,  16.00,  16.00,  16.00,  16.00,  16.00,  16.00,  16.00,  16.00,  16.00
! <Site:GroundReflectance>,Jan{dimensionless},Feb{dimensionless},Mar{dimensionless},Apr{dimensionless},May{dimensionless},Jun{dimensionless},Jul{dimensionless},Aug{dimensionless},Sep{dimensionless},Oct{dimensionless},Nov{dimensionless},Dec{dimensionless}
 Site:GroundReflectance,  0.20,  0.20,  0.20,  0.20,  0.20,  0.20,  0.20,  0.20,  0.20,  0.20,  0.20,  0.20
! <Site:GroundReflectance:SnowModifier>, Normal, Daylighting {dimensionless}
 Site:GroundReflectance:SnowModifier,   1.000,   1.000
! <Site:GroundReflectance:Snow>,Jan{dimensionless},Feb{dimensionless},Mar{dimensionless},Apr{dimensionless},May{dimensionless},Jun{dimensionless},Jul{dimensionless},Aug{dimensionless},Sep{dimensionless},Oct{dimensionless},Nov{dimensionless},Dec{dimensionless}
 Site:GroundReflectance:Snow,  0.20,  0.20,  0.20,  0.20,  0.20,  0.20,  0.20,  0.20,  0.20,  0.20,  0.20,  0.20
! <Site:GroundReflectance:Snow:Daylighting>,Jan{dimensionless},Feb{dimensionless},Mar{dimensionless},Apr{dimensionless},May{dimensionless},Jun{dimensionless},Jul{dimensionless},Aug{dimensionless},Sep{dimensionless},Oct{dimensionless},Nov{dimensionless},Dec{dimensionless}
 Site:GroundReflectance:Snow:Daylighting,  0.20,  0.20,  0.20,  0.20,  0.20,  0.20,  0.20,  0.20,  0.20,  0.20,  0.20,  0.20
! <Environment:Weather Station>,Wind Sensor Height Above Ground {m},Wind Speed Profile Exponent {},Wind Speed Profile Boundary Layer Thickness {m},Air Temperature Sensor Height Above Ground {m},Wind Speed Modifier Coefficient-Internal,Temperature Modifier Coefficient-Internal
Environment:Weather Station,10.000,0.140,270.000,1.500,1.586,9.750E-003
! <Site:Location>, Location Name, Latitude {N+/S- Deg}, Longitude {E+/W- Deg},  Time Zone Number {GMT+/-}, Elevation {m},  Standard Pressure at Elevation {Pa}, Standard RhoAir at Elevation
Site:Location,Chicago Ohare Intl Ap IL USA TMY3 WMO#=725300,41.98,-87.92,-6.00,201.00,98934,1.1759
! <Site Water Mains Temperature Information>,Calculation Method{},Water Mains Temperature Schedule Name{},Annual Average Outdoor Air Temperature{C},Maximum Difference In Monthly Average Outdoor Air Temperatures{deltaC},Fixed Default Water Mains Temperature{C}
Site Water Mains Temperature Information,Correlation,NA,8.97,26.20,NA
! <Building Information>, Building Name,North Axis {deg},Terrain,  Loads Convergence Tolerance Value,Temperature Convergence Tolerance Value,  Solar Distribution,Maximum Number of Warmup Days,Minimum Number of Warmup Days
 Building Information,OfficeMedium,0.000,City,4.00000E-002,0.20000,FullInteriorAndExterior,25,6
! <Inside Convection Algorithm>, Algorithm {Simple | TARP | CeilingDiffuser | AdaptiveConvectionAlgorithm}
Inside Convection Algorithm,TARP
! <Outside Convection Algorithm>, Algorithm {SimpleCombined | TARP | MoWitt | DOE-2 | AdaptiveConvectionAlgorithm}
Outside Convection Algorithm,TARP
! <Sky Radiance Distribution>, Value {Anisotropic}
Sky Radiance Distribution,Anisotropic
! <Zone Air Solution Algorithm>, Value {ThirdOrderBackwardDifference | AnalyticalSolution | EulerMethod}
 Zone Air Solution Algorithm, ThirdOrderBackwardDifference
! <Zone Air Carbon Dioxide Balance Simulation>, Simulation {Yes/No}, Carbon Dioxide Concentration
 Zone Air Carbon Dioxide Balance Simulation, No,N/A
! <Zone Air Generic Contaminant Balance Simulation>, Simulation {Yes/No}, Generic Contaminant Concentration
 Zone Air Generic Contaminant Balance Simulation, No,N/A
! <Zone Air Mass Flow Balance Simulation>, Enforce Mass Balance, Adjust Zone Mixing and Return {AdjustMixingOnly | AdjustReturnOnly | AdjustMixingThenReturn | AdjustReturnThenMixing | None}, Adjust Zone Infiltration {AddInfiltration | AdjustInfiltration | None}, Infiltration Zones {MixingSourceZonesOnly | AllZones}
 Zone Air Mass Flow Balance Simulation, No,N/A,N/A,N/A
! <HVACSystemRootFindingAlgorithm>, Value {RegulaFalsi | Bisection | BisectionThenRegulaFalsi | RegulaFalsiThenBisection}
 HVACSystemRootFindingAlgorithm, RegulaFalsi
! <Environment:Site Atmospheric Variation>,Wind Speed Profile Exponent {},Wind Speed Profile Boundary Layer Thickness {m},Air Temperature Gradient Coefficient {K/m}
Environment:Site Atmospheric Variation,0.330,460.000,6.500000E-003
! <Surface Geometry>,Starting Corner,Vertex Input Direction,Coordinate System,Daylight Reference Point Coordinate System,Rectangular (Simple) Surface Coordinate System
 Surface Geometry,UpperLeftCorner,Counterclockwise,RelativeCoordinateSystem,RelativeCoordinateSystem,RelativeToZoneOrigin
! <Surface Heat Transfer Algorithm>, Value {CTF - ConductionTransferFunction | EMPD - MoisturePenetrationDepthConductionTransferFunction | CondFD - ConductionFiniteDifference | HAMT - CombinedHeatAndMoistureFiniteElement} - Description,Inside Surface Max Temperature Limit{C}, Surface Convection Coefficient Lower Limit {W/m2-K}, Surface Convection Coefficient Upper Limit {W/m2-K}
Surface Heat Transfer Algorithm, CTF - ConductionTransferFunction,200,0.10,1000.0
! <Shading Summary>, Number of Fixed Detached Shades, Number of Building Detached Shades, Number of Attached Shades
 Shading Summary,0,0,0
! <Zone Summary>, Number of Zones, Number of Zone Surfaces, Number of SubSurfaces
 Zone Summary,86,918,53
! <Zone Information>,Zone Name,North Axis {deg},Origin X-Coordinate {m},Origin Y-Coordinate {m},Origin Z-Coordinate {m},Centroid X-Coordinate {m},Centroid Y-Coordinate {m},Centroid Z-Coordinate {m},Type,Zone Multiplier,Zone List Multiplier,Minimum X {m},Maximum X {m},Minimum Y {m},Maximum Y {m},Minimum Z {m},Maximum Z {m},Ceiling Height {m},Volume {m3},Zone Inside Convection Algorithm {Simple-Detailed-CeilingDiffuser-TrombeWall},Zone Outside Convection Algorithm {Simple-Detailed-Tarp-MoWitt-DOE-2-BLAST}, Floor Area {m2},Exterior Gross Wall Area {m2},Exterior Net Wall Area {m2},Exterior Window Area {m2}, Number of Surfaces, Number of SubSurfaces, Number of Shading SubSurfaces,  Part of Total Building Area
 Zone Information, ACTIVESTORAGE_BOT_1 ZN,0.0,0.00,-1.60E-031,0.00,19.39,8.80,1.37,1,1,1,15.35,23.43,6.56,11.04,0.00,2.74,2.74,99.26,TARP,TARP,36.19,0.00,0.00,0.00,7,0,0,Yes
 Zone Information, ACTIVESTORAGE_BOT_2 ZN,0.0,0.00,-1.60E-031,0.00,30.08,8.80,1.37,1,1,1,26.48,33.67,6.56,11.04,0.00,2.74,2.74,88.40,TARP,TARP,32.22,0.00,0.00,0.00,7,0,0,Yes
 Zone Information, ACTIVESTORAGE_BOT_3 ZN,0.0,0.00,-1.60E-031,0.00,30.08,24.47,1.37,1,1,1,26.48,33.67,22.23,26.71,0.00,2.74,2.74,88.40,TARP,TARP,32.22,0.00,0.00,0.00,7,0,0,Yes
 Zone Information, ACTIVESTORAGE_BOT_4 ZN,0.0,0.00,-1.60E-031,0.00,16.83,24.47,1.37,1,1,1,15.35,18.31,22.23,26.71,0.00,2.74,2.74,36.33,TARP,TARP,13.24,0.00,0.00,0.00,7,0,0,Yes
 Zone Information, ACTIVESTORAGE_MID_1 ZN,0.0,5.78E-015,-1.60E-031,3.96,19.39,8.80,5.33,1,1,1,15.35,23.43,6.56,11.04,3.96,6.71,2.74,99.26,TARP,TARP,36.19,0.00,0.00,0.00,7,0,0,Yes
 Zone Information, ACTIVESTORAGE_MID_2 ZN,0.0,5.78E-015,-1.60E-031,3.96,30.08,8.80,5.33,1,1,1,26.48,33.67,6.56,11.04,3.96,6.71,2.74,88.40,TARP,TARP,32.22,0.00,0.00,0.00,7,0,0,Yes
 Zone Information, ACTIVESTORAGE_MID_3 ZN,0.0,5.78E-015,-1.60E-031,3.96,30.08,24.47,5.33,1,1,1,26.48,33.67,22.23,26.71,3.96,6.71,2.74,88.40,TARP,TARP,32.22,0.00,0.00,0.00,7,0,0,Yes
 Zone Information, ACTIVESTORAGE_MID_4 ZN,0.0,5.78E-015,-1.60E-031,3.96,16.83,24.47,5.33,1,1,1,15.35,18.31,22.23,26.71,3.96,6.71,2.74,36.33,TARP,TARP,13.24,0.00,0.00,0.00,7,0,0,Yes
 Zone Information, ACTIVESTORAGE_TOP_1 ZN,0.0,5.78E-015,7.22E-016,7.92,19.39,8.80,9.30,1,1,1,15.35,23.43,6.56,11.04,7.92,10.67,2.74,99.26,TARP,TARP,36.19,0.00,0.00,0.00,7,0,0,Yes
 Zone Information, ACTIVESTORAGE_TOP_2 ZN,0.0,5.78E-015,7.22E-016,7.92,30.08,8.80,9.30,1,1,1,26.48,33.67,6.56,11.04,7.92,10.67,2.74,88.40,TARP,TARP,32.22,0.00,0.00,0.00,7,0,0,Yes
 Zone Information, ACTIVESTORAGE_TOP_3 ZN,0.0,5.78E-015,7.22E-016,7.92,30.08,24.47,9.30,1,1,1,26.48,33.67,22.23,26.71,7.92,10.67,2.74,88.40,TARP,TARP,32.22,0.00,0.00,0.00,7,0,0,Yes
 Zone Information, ACTIVESTORAGE_TOP_4 ZN,0.0,5.78E-015,7.22E-016,7.92,16.83,24.47,9.30,1,1,1,15.35,18.31,22.23,26.71,7.92,10.67,2.74,36.33,TARP,TARP,13.24,0.00,0.00,0.00,7,0,0,Yes
 Zone Information, CLASSROOM_BOT ZN,0.0,0.00,-1.60E-031,0.00,7.29,30.60,1.37,1,1,1,4.50,10.08,27.93,33.27,0.00,2.74,2.74,81.72,TARP,TARP,29.79,15.30,8.01,7.30,6,1,0,Yes
 Zone Information, CONFROOM_BOT_1 ZN,0.0,0.00,-7.22E-016,0.00,4.03,2.67,1.37,1,1,1,0.00,8.07,-7.22E-016,5.34,0.00,2.74,2.74,118.25,TARP,TARP,43.11,36.79,19.25,17.54,7,2,0,Yes
 Zone Information, CONFROOM_BOT_2 ZN,0.0,0.00,-1.60E-031,0.00,45.88,2.67,1.37,1,1,1,41.84,49.91,-1.60E-031,5.34,0.00,2.74,2.74,118.25,TARP,TARP,43.11,36.79,19.25,17.54,7,2,0,Yes
 Zone Information, CONFROOM_MID_1 ZN,0.0,5.78E-015,-1.60E-031,3.96,4.03,2.67,5.33,1,1,1,5.78E-015,8.07,-1.60E-031,5.34,3.96,6.71,2.74,118.25,TARP,TARP,43.11,36.79,19.25,17.54,7,2,0,Yes
 Zone Information, CONFROOM_MID_2 ZN,0.0,5.78E-015,-1.60E-031,3.96,45.88,2.67,5.33,1,1,1,41.84,49.91,-1.60E-031,5.34,3.96,6.71,2.74,118.25,TARP,TARP,43.11,36.79,19.25,17.54,7,2,0,Yes
 Zone Information, CONFROOM_TOP_1 ZN,0.0,5.78E-015,7.22E-016,7.92,4.03,2.67,9.30,1,1,1,5.78E-015,8.07,7.22E-016,5.34,7.92,10.67,2.74,118.25,TARP,TARP,43.11,36.79,19.25,17.54,7,2,0,Yes
 Zone Information, CONFROOM_TOP_2 ZN,0.0,5.78E-015,7.22E-016,7.92,45.88,2.67,9.30,1,1,1,41.84,49.91,7.22E-016,5.34,7.92,10.67,2.74,118.25,TARP,TARP,43.11,36.79,19.25,17.54,7,2,0,Yes
 Zone Information, CORRIDOR_BOT_1 ZN,0.0,0.00,-1.60E-031,0.00,24.96,8.98,1.37,1,1,1,4.50,45.41,5.34,16.64,0.00,2.74,2.74,204.21,TARP,TARP,74.44,0.00,0.00,0.00,20,0,0,Yes
 Zone Information, CORRIDOR_BOT_2 ZN,0.0,0.00,-1.60E-031,0.00,24.96,24.29,1.37,1,1,1,4.50,45.41,16.64,27.93,0.00,2.74,2.74,204.21,TARP,TARP,74.44,0.00,0.00,0.00,20,0,0,Yes
 Zone Information, CORRIDOR_MID_1 ZN,0.0,5.78E-015,-1.60E-031,3.96,24.96,8.98,5.33,1,1,1,4.50,45.41,5.34,16.64,3.96,6.71,2.74,204.21,TARP,TARP,74.44,0.00,0.00,0.00,20,0,0,Yes
 Zone Information, CORRIDOR_MID_2 ZN,0.0,5.78E-015,-1.60E-031,3.96,24.96,24.29,5.33,1,1,1,4.50,45.41,16.64,27.93,3.96,6.71,2.74,204.21,TARP,TARP,74.44,0.00,0.00,0.00,21,0,0,Yes
 Zone Information, CORRIDOR_TOP_1 ZN,0.0,5.78E-015,7.22E-016,7.92,24.96,8.98,9.30,1,1,1,4.50,45.41,5.34,16.64,7.92,10.67,2.74,204.21,TARP,TARP,74.44,0.00,0.00,0.00,20,0,0,Yes
 Zone Information, CORRIDOR_TOP_2 ZN,0.0,5.78E-015,7.22E-016,7.92,24.96,24.29,9.30,1,1,1,4.50,45.41,16.64,27.93,7.92,10.67,2.74,204.21,TARP,TARP,74.44,0.00,0.00,0.00,21,0,0,Yes
 Zone Information, DINING_BOT ZN,0.0,0.00,-1.60E-031,0.00,20.87,24.47,1.37,1,1,1,18.31,23.43,22.23,26.71,0.00,2.74,2.74,62.94,TARP,TARP,22.94,0.00,0.00,0.00,6,0,0,Yes
 Zone Information, DINING_MID ZN,0.0,5.78E-015,-1.60E-031,3.96,20.87,24.47,5.33,1,1,1,18.31,23.43,22.23,26.71,3.96,6.71,2.74,62.94,TARP,TARP,22.94,0.00,0.00,0.00,6,0,0,Yes
 Zone Information, DINING_TOP ZN,0.0,5.78E-015,7.22E-016,7.92,20.87,24.47,9.30,1,1,1,18.31,23.43,22.23,26.71,7.92,10.67,2.74,62.94,TARP,TARP,22.94,0.00,0.00,0.00,6,0,0,Yes
 Zone Information, ENCLOSEDOFFICE_BOT_1 ZN,0.0,0.00,-1.60E-031,0.00,2.25,8.83,1.37,1,1,1,0.00,4.50,5.34,12.33,0.00,2.74,2.74,86.29,TARP,TARP,31.46,19.16,10.08,9.08,6,1,0,Yes
 Zone Information, ENCLOSEDOFFICE_BOT_2 ZN,0.0,0.00,35.23,-5.90,47.66,29.78,1.37,1,1,1,45.41,49.91,26.29,33.27,0.00,2.74,2.74,86.24,TARP,TARP,31.44,31.50,16.54,14.97,7,2,0,Yes
 Zone Information, ENCLOSEDOFFICE_BOT_3 ZN,0.0,0.00,-1.60E-031,0.00,12.32,2.67,1.37,1,1,1,8.07,16.57,-1.60E-031,5.34,0.00,2.74,2.74,124.62,TARP,TARP,45.43,23.33,12.20,11.12,6,1,0,Yes
 Zone Information, ENCLOSEDOFFICE_BOT_4 ZN,0.0,0.00,-1.60E-031,0.00,37.59,2.67,1.37,1,1,1,33.34,41.84,-1.60E-031,5.34,0.00,2.74,2.74,124.62,TARP,TARP,45.43,23.33,12.20,11.12,6,1,0,Yes
 Zone Information, ENCLOSEDOFFICE_BOT_5 ZN,0.0,3.07E-002,12.87,0.00,2.25,15.82,1.37,1,1,1,0.00,4.50,12.33,19.31,0.00,2.74,2.74,86.27,TARP,TARP,31.45,19.15,10.08,9.07,7,1,0,Yes
 Zone Information, ENCLOSEDOFFICE_BOT_6 ZN,0.0,4.69E-002,21.18,0.00,2.25,22.80,1.37,1,1,1,0.00,4.50,19.31,26.29,0.00,2.74,2.74,86.27,TARP,TARP,31.45,19.15,10.08,9.07,6,1,0,Yes
 Zone Information, ENCLOSEDOFFICE_BOT_7 ZN,0.0,0.00,27.55,2.18E-002,2.25,29.78,1.37,1,1,1,0.00,4.50,26.29,33.27,0.00,2.74,2.74,86.27,TARP,TARP,31.45,31.51,16.54,14.97,7,2,0,Yes
 Zone Information, ENCLOSEDOFFICE_BOT_8 ZN,0.0,50.08,19.67,0.00,47.66,22.80,1.37,1,1,1,45.41,49.91,19.31,26.29,0.00,2.74,2.74,86.24,TARP,TARP,31.44,19.15,10.08,9.07,6,1,0,Yes
 Zone Information, ENCLOSEDOFFICE_BOT_9 ZN,0.0,45.41,16.33,0.61,47.66,15.82,1.37,1,1,1,45.41,49.91,12.33,19.31,0.00,2.74,2.74,86.24,TARP,TARP,31.44,19.15,10.08,9.07,7,1,0,Yes
 Zone Information, ENCLOSEDOFFICE_BOT_10 ZN,0.0,0.00,-1.60E-031,0.00,47.66,8.84,1.37,1,1,1,45.41,49.91,5.34,12.33,0.00,2.74,2.74,86.38,TARP,TARP,31.49,19.18,10.09,9.09,6,1,0,Yes
 Zone Information, ENCLOSEDOFFICE_MID_1 ZN,0.0,5.78E-015,-1.60E-031,3.96,2.25,8.84,5.33,1,1,1,5.78E-015,4.50,5.34,12.33,3.96,6.71,2.74,86.38,TARP,TARP,31.49,19.18,10.09,9.09,6,1,0,Yes
 Zone Information, ENCLOSEDOFFICE_MID_2 ZN,0.0,0.00,-1.60E-031,3.96,47.66,29.78,5.33,1,1,1,45.41,49.91,26.28,33.27,3.96,6.71,2.74,86.38,TARP,TARP,31.49,31.54,16.55,14.98,7,2,0,Yes
 Zone Information, ENCLOSEDOFFICE_MID_3 ZN,0.0,5.78E-015,-1.60E-031,3.96,8.45,30.60,5.33,1,1,1,4.50,12.39,27.93,33.27,3.96,6.71,2.74,115.56,TARP,TARP,42.13,21.64,11.32,10.32,7,1,0,Yes
 Zone Information, ENCLOSEDOFFICE_MID_4 ZN,0.0,0.00,13.59,3.91,2.25,15.82,5.33,1,1,1,0.00,4.50,12.33,19.31,3.96,6.71,2.74,86.24,TARP,TARP,31.44,19.15,10.08,9.07,7,1,0,Yes
 Zone Information, ENCLOSEDOFFICE_MID_5 ZN,0.0,9.64,17.51,0.00,2.25,22.80,5.33,1,1,1,0.00,4.50,19.31,26.29,3.96,6.71,2.74,86.24,TARP,TARP,31.44,19.15,10.08,9.07,6,1,0,Yes
 Zone Information, ENCLOSEDOFFICE_MID_6 ZN,0.0,0.71,26.29,3.96,2.25,29.78,5.33,1,1,1,0.00,4.50,26.29,33.27,3.96,6.71,2.74,86.24,TARP,TARP,31.44,31.50,16.54,14.97,7,2,0,Yes
 Zone Information, ENCLOSEDOFFICE_MID_7 ZN,0.0,45.94,19.50,3.96,47.66,22.79,5.33,1,1,1,45.41,49.91,19.30,26.28,3.96,6.71,2.74,86.24,TARP,TARP,31.44,19.15,10.07,9.07,6,1,0,Yes
 Zone Information, ENCLOSEDOFFICE_MID_8 ZN,0.0,33.27,29.01,0.00,47.66,15.81,5.33,1,1,1,45.41,49.91,12.32,19.30,3.96,6.71,2.74,86.24,TARP,TARP,31.44,19.15,10.08,9.07,7,1,0,Yes
 Zone Information, ENCLOSEDOFFICE_MID_9 ZN,0.0,48.49,11.92,3.96,47.66,8.83,5.33,1,1,1,45.41,49.91,5.34,12.32,3.96,6.71,2.74,86.24,TARP,TARP,31.44,19.15,10.07,9.07,6,1,0,Yes
 Zone Information, ENCLOSEDOFFICE_TOP_1 ZN,0.0,5.78E-015,7.22E-016,7.92,2.25,8.83,9.30,1,1,1,5.78E-015,4.50,5.34,12.33,7.92,10.67,2.74,86.31,TARP,TARP,31.46,19.16,10.09,9.08,6,1,0,Yes
 Zone Information, ENCLOSEDOFFICE_TOP_2 ZN,0.0,5.78E-015,7.22E-016,7.92,47.66,29.78,9.30,1,1,1,45.41,49.91,26.28,33.27,7.92,10.67,2.74,86.38,TARP,TARP,31.49,31.54,16.57,14.97,7,2,0,Yes
 Zone Information, ENCLOSEDOFFICE_TOP_3 ZN,0.0,5.78E-015,7.22E-016,7.92,8.45,30.60,9.30,1,1,1,4.50,12.39,27.93,33.27,7.92,10.67,2.74,115.56,TARP,TARP,42.13,21.64,11.32,10.32,7,1,0,Yes
 Zone Information, ENCLOSEDOFFICE_TOP_4 ZN,0.0,0.38,12.81,7.92,2.25,15.82,9.30,1,1,1,0.00,4.50,12.33,19.31,7.92,10.67,2.74,86.31,TARP,TARP,31.46,19.16,10.09,9.08,7,1,0,Yes
 Zone Information, ENCLOSEDOFFICE_TOP_5 ZN,0.0,0.00,26.05,7.92,2.25,22.80,9.30,1,1,1,0.00,4.50,19.31,26.29,7.92,10.67,2.74,86.24,TARP,TARP,31.44,19.15,10.08,9.07,6,1,0,Yes
 Zone Information, ENCLOSEDOFFICE_TOP_6 ZN,0.0,0.55,29.43,7.92,2.25,29.78,9.30,1,1,1,0.00,4.50,26.29,33.27,7.92,10.67,2.74,86.24,TARP,TARP,31.44,31.50,16.54,14.97,7,2,0,Yes
 Zone Information, ENCLOSEDOFFICE_TOP_7 ZN,0.0,48.21,20.68,7.92,47.66,22.79,9.30,1,1,1,45.41,49.91,19.30,26.28,7.92,10.67,2.74,86.24,TARP,TARP,31.44,19.15,10.08,9.07,6,1,0,Yes
 Zone Information, ENCLOSEDOFFICE_TOP_8 ZN,0.0,46.84,13.02,7.92,47.66,15.81,9.30,1,1,1,45.41,49.91,12.32,19.30,7.92,10.67,2.74,86.24,TARP,TARP,31.44,19.15,10.08,9.07,7,1,0,Yes
 Zone Information, ENCLOSEDOFFICE_TOP_9 ZN,0.0,46.14,5.63,7.92,47.66,8.83,9.30,1,1,1,45.41,49.91,5.34,12.32,7.92,10.67,2.74,86.24,TARP,TARP,31.44,19.15,10.07,9.07,6,1,0,Yes
 Zone Information, FIRSTFLOOR_PLENUM ZN,0.0,5.78E-015,0.00,2.74,24.96,16.64,3.35,1,1,1,0.00,49.91,-7.22E-016,33.27,2.74,3.96,1.22,2024.77,TARP,TARP,1660.74,202.84,202.84,0.00,60,0,0,No
 Zone Information, LOBBY_BOT ZN,0.0,0.00,-1.60E-031,0.00,24.96,16.64,1.37,1,1,1,23.43,26.48,6.56,26.71,0.00,2.74,2.74,168.51,TARP,TARP,61.43,0.00,0.00,0.00,10,0,0,Yes
 Zone Information, LOBBY_MID ZN,0.0,5.78E-015,-1.60E-031,3.96,24.96,16.64,5.33,1,1,1,23.43,26.48,6.56,26.71,3.96,6.71,2.74,168.51,TARP,TARP,61.43,0.00,0.00,0.00,10,0,0,Yes
 Zone Information, LOBBY_TOP ZN,0.0,5.78E-015,7.22E-016,7.92,24.96,16.64,9.30,1,1,1,23.43,26.48,6.56,26.71,7.92,10.67,2.74,168.51,TARP,TARP,61.43,0.00,0.00,0.00,10,0,0,Yes
 Zone Information, LOUNGE_BOT ZN,0.0,0.00,-1.60E-031,0.00,24.96,2.67,1.37,1,1,1,16.57,33.34,-1.60E-031,5.34,0.00,2.74,2.74,245.66,TARP,TARP,89.55,45.99,24.06,21.93,6,1,0,Yes
 Zone Information, MECHANICAL_BOT ZN,0.0,0.00,-1.60E-031,0.00,28.70,16.64,1.37,1,1,1,26.48,30.93,11.04,22.23,0.00,2.74,2.74,136.63,TARP,TARP,49.81,0.00,0.00,0.00,6,0,0,Yes
 Zone Information, MECHANICAL_MID ZN,0.0,5.78E-015,-1.60E-031,3.96,28.70,16.64,5.33,1,1,1,26.48,30.93,11.04,22.23,3.96,6.71,2.74,136.63,TARP,TARP,49.81,0.00,0.00,0.00,6,0,0,Yes
 Zone Information, MECHANICAL_TOP ZN,0.0,5.78E-015,7.22E-016,7.92,28.70,16.64,9.30,1,1,1,26.48,30.93,11.04,22.23,7.92,10.67,2.74,136.63,TARP,TARP,49.81,0.00,0.00,0.00,6,0,0,Yes
 Zone Information, MIDFLOOR_PLENUM ZN,0.0,5.78E-015,7.22E-016,3.96,24.96,16.88,6.88,1,1,1,0.00,49.91,-1.60E-031,33.27,6.71,7.92,1.22,2024.77,TARP,TARP,1660.74,202.84,202.84,0.00,37,0,0,No
 Zone Information, OPENOFFICE_BOT_1 ZN,0.0,0.00,-1.60E-031,0.00,10.54,16.64,1.37,1,1,1,5.72,15.35,6.56,26.71,0.00,2.74,2.74,532.47,TARP,TARP,194.10,0.00,0.00,0.00,9,0,0,Yes
 Zone Information, OPENOFFICE_BOT_2 ZN,0.0,0.00,-1.60E-031,0.00,38.93,16.64,1.37,1,1,1,33.67,44.19,6.56,26.71,0.00,2.74,2.74,581.35,TARP,TARP,211.92,0.00,0.00,0.00,9,0,0,Yes
 Zone Information, OPENOFFICE_BOT_3 ZN,0.0,0.00,-1.60E-031,0.00,27.74,30.60,1.37,1,1,1,10.08,45.41,27.93,33.27,0.00,2.74,2.74,517.50,TARP,TARP,188.65,96.90,50.69,46.21,6,1,0,Yes
 Zone Information, OPENOFFICE_MID_1 ZN,0.0,5.78E-015,-1.60E-031,3.96,10.54,16.64,5.33,1,1,1,5.72,15.35,6.56,26.71,3.96,6.71,2.74,532.47,TARP,TARP,194.10,0.00,0.00,0.00,9,0,0,Yes
 Zone Information, OPENOFFICE_MID_2 ZN,0.0,5.78E-015,-1.60E-031,3.96,38.93,16.64,5.33,1,1,1,33.67,44.19,6.56,26.71,3.96,6.71,2.74,581.35,TARP,TARP,211.92,0.00,0.00,0.00,9,0,0,Yes
 Zone Information, OPENOFFICE_MID_3 ZN,0.0,5.78E-015,-1.60E-031,3.96,28.90,30.60,5.33,1,1,1,12.39,45.41,27.93,33.27,3.96,6.71,2.74,483.66,TARP,TARP,176.31,90.57,47.38,43.19,6,1,0,Yes
 Zone Information, OPENOFFICE_MID_4 ZN,0.0,5.78E-015,-1.60E-031,3.96,24.96,2.67,5.33,1,1,1,8.07,41.84,-1.60E-031,5.34,3.96,6.71,2.74,494.90,TARP,TARP,180.41,92.64,48.47,44.18,8,1,0,Yes
 Zone Information, OPENOFFICE_TOP_1 ZN,0.0,5.78E-015,7.22E-016,7.92,10.54,16.64,9.30,1,1,1,5.72,15.35,6.56,26.71,7.92,10.67,2.74,532.47,TARP,TARP,194.10,0.00,0.00,0.00,9,0,0,Yes
 Zone Information, OPENOFFICE_TOP_2 ZN,0.0,5.78E-015,7.22E-016,7.92,38.93,16.64,9.30,1,1,1,33.67,44.19,6.56,26.71,7.92,10.67,2.74,581.35,TARP,TARP,211.92,0.00,0.00,0.00,9,0,0,Yes
 Zone Information, OPENOFFICE_TOP_3 ZN,0.0,5.78E-015,7.22E-016,7.92,28.90,30.60,9.30,1,1,1,12.39,45.41,27.93,33.27,7.92,10.67,2.74,483.66,TARP,TARP,176.31,90.57,47.38,43.19,6,1,0,Yes
 Zone Information, OPENOFFICE_TOP_4 ZN,0.0,5.78E-015,7.22E-016,7.92,24.96,2.67,9.30,1,1,1,8.07,41.84,7.22E-016,5.34,7.92,10.67,2.74,494.90,TARP,TARP,180.41,92.64,48.47,44.18,8,1,0,Yes
 Zone Information, RESTROOM_BOT ZN,0.0,0.00,-1.60E-031,0.00,20.76,16.64,1.37,1,1,1,18.10,23.43,11.04,22.23,0.00,2.74,2.74,163.79,TARP,TARP,59.71,0.00,0.00,0.00,7,0,0,Yes
 Zone Information, RESTROOM_MID ZN,0.0,5.78E-015,-1.60E-031,3.96,20.76,16.64,5.33,1,1,1,18.10,23.43,11.04,22.23,3.96,6.71,2.74,163.79,TARP,TARP,59.71,0.00,0.00,0.00,7,0,0,Yes
 Zone Information, RESTROOM_TOP ZN,0.0,5.78E-015,7.22E-016,7.92,20.76,16.64,9.30,1,1,1,18.10,23.43,11.04,22.23,7.92,10.67,2.74,163.79,TARP,TARP,59.71,0.00,0.00,0.00,7,0,0,Yes
 Zone Information, STAIR_BOT_1 ZN,0.0,0.00,-1.60E-031,0.00,16.73,16.64,1.37,1,1,1,15.35,18.10,11.04,22.23,0.00,2.74,2.74,84.23,TARP,TARP,30.71,0.00,0.00,0.00,6,0,0,Yes
 Zone Information, STAIR_BOT_2 ZN,0.0,0.00,-1.60E-031,0.00,32.30,16.64,1.37,1,1,1,30.93,33.67,11.04,22.23,0.00,2.74,2.74,84.23,TARP,TARP,30.71,0.00,0.00,0.00,6,0,0,Yes
 Zone Information, STAIR_MID_1 ZN,0.0,5.78E-015,-1.60E-031,3.96,16.73,16.64,5.33,1,1,1,15.35,18.10,11.04,22.23,3.96,6.71,2.74,84.23,TARP,TARP,30.71,0.00,0.00,0.00,6,0,0,Yes
 Zone Information, STAIR_MID_2 ZN,0.0,5.78E-015,-1.60E-031,3.96,32.30,16.64,5.33,1,1,1,30.93,33.67,11.04,22.23,3.96,6.71,2.74,84.23,TARP,TARP,30.71,0.00,0.00,0.00,6,0,0,Yes
 Zone Information, STAIR_TOP_1 ZN,0.0,5.78E-015,7.22E-016,7.92,16.73,16.64,9.30,1,1,1,15.35,18.10,11.04,22.23,7.92,10.67,2.74,84.23,TARP,TARP,30.71,0.00,0.00,0.00,6,0,0,Yes
 Zone Information, STAIR_TOP_2 ZN,0.0,5.78E-015,7.22E-016,7.92,32.30,16.64,9.30,1,1,1,30.93,33.67,11.04,22.23,7.92,10.67,2.74,84.23,TARP,TARP,30.71,0.00,0.00,0.00,6,0,0,Yes
 Zone Information, TOPFLOOR_PLENUM ZN,0.0,-1.03E-029,1.44E-015,0.00,24.96,16.64,11.28,1,1,1,-1.03E-029,49.91,7.22E-016,33.27,10.67,11.89,1.22,2024.77,TARP,TARP,1660.74,202.84,202.84,0.00,32,0,0,No
! <Zone Internal Gains Nominal>,Zone Name, Floor Area {m2},# Occupants,Area per Occupant {m2/person},Occupant per Area {person/m2},Interior Lighting {W/m2},Electric Load {W/m2},Gas Load {W/m2},Other Load {W/m2},Hot Water Eq {W/m2},Steam Equipment {W/m2},Sum Loads per Area {W/m2},Outdoor Controlled Baseboard Heat
 Zone Internal Gains Nominal, ACTIVESTORAGE_BOT_1 ZN,36.19,0.0,N/A,0.000,6.889,0.000,0.000,0.000,0.000,0.000,6.889,No
 Zone Internal Gains Nominal, ACTIVESTORAGE_BOT_2 ZN,32.22,0.0,N/A,0.000,6.889,0.000,0.000,0.000,0.000,0.000,6.889,No
 Zone Internal Gains Nominal, ACTIVESTORAGE_BOT_3 ZN,32.22,0.0,N/A,0.000,6.889,0.000,0.000,0.000,0.000,0.000,6.889,No
 Zone Internal Gains Nominal, ACTIVESTORAGE_BOT_4 ZN,13.24,0.0,N/A,0.000,6.889,0.000,0.000,0.000,0.000,0.000,6.889,No
 Zone Internal Gains Nominal, ACTIVESTORAGE_MID_1 ZN,36.19,0.0,N/A,0.000,6.889,0.000,0.000,0.000,0.000,0.000,6.889,No
 Zone Internal Gains Nominal, ACTIVESTORAGE_MID_2 ZN,32.22,0.0,N/A,0.000,6.889,0.000,0.000,0.000,0.000,0.000,6.889,No
 Zone Internal Gains Nominal, ACTIVESTORAGE_MID_3 ZN,32.22,0.0,N/A,0.000,6.889,0.000,0.000,0.000,0.000,0.000,6.889,No
 Zone Internal Gains Nominal, ACTIVESTORAGE_MID_4 ZN,13.24,0.0,N/A,0.000,6.889,0.000,0.000,0.000,0.000,0.000,6.889,No
 Zone Internal Gains Nominal, ACTIVESTORAGE_TOP_1 ZN,36.19,0.0,N/A,0.000,6.889,0.000,0.000,0.000,0.000,0.000,6.889,No
 Zone Internal Gains Nominal, ACTIVESTORAGE_TOP_2 ZN,32.22,0.0,N/A,0.000,6.889,0.000,0.000,0.000,0.000,0.000,6.889,No
 Zone Internal Gains Nominal, ACTIVESTORAGE_TOP_3 ZN,32.22,0.0,N/A,0.000,6.889,0.000,0.000,0.000,0.000,0.000,6.889,No
 Zone Internal Gains Nominal, ACTIVESTORAGE_TOP_4 ZN,13.24,0.0,N/A,0.000,6.889,0.000,0.000,0.000,0.000,0.000,6.889,No
 Zone Internal Gains Nominal, CLASSROOM_BOT ZN,29.79,16.0,1.862,0.537,6.889,10.000,0.000,0.000,0.000,0.000,16.889,No
 Zone Internal Gains Nominal, CONFROOM_BOT_1 ZN,43.11,23.0,1.874,0.534,6.889,10.764,0.000,0.000,0.000,0.000,17.653,No
 Zone Internal Gains Nominal, CONFROOM_BOT_2 ZN,43.11,23.0,1.874,0.534,6.889,10.764,0.000,0.000,0.000,0.000,17.653,No
 Zone Internal Gains Nominal, CONFROOM_MID_1 ZN,43.11,23.0,1.874,0.534,6.889,10.764,0.000,0.000,0.000,0.000,17.653,No
 Zone Internal Gains Nominal, CONFROOM_MID_2 ZN,43.11,23.0,1.874,0.534,6.889,10.764,0.000,0.000,0.000,0.000,17.653,No
 Zone Internal Gains Nominal, CONFROOM_TOP_1 ZN,43.11,23.0,1.874,0.534,6.889,10.764,0.000,0.000,0.000,0.000,17.653,No
 Zone Internal Gains Nominal, CONFROOM_TOP_2 ZN,43.11,23.0,1.874,0.534,6.889,10.764,0.000,0.000,0.000,0.000,17.653,No
 Zone Internal Gains Nominal, CORRIDOR_BOT_1 ZN,74.44,0.0,N/A,0.000,6.889,3.122,0.000,0.000,0.000,0.000,10.010,No
 Zone Internal Gains Nominal, CORRIDOR_BOT_2 ZN,74.44,0.0,N/A,0.000,6.889,3.122,0.000,0.000,0.000,0.000,10.010,No
 Zone Internal Gains Nominal, CORRIDOR_MID_1 ZN,74.44,0.0,N/A,0.000,6.889,3.122,0.000,0.000,0.000,0.000,10.010,No
 Zone Internal Gains Nominal, CORRIDOR_MID_2 ZN,74.44,0.0,N/A,0.000,6.889,3.122,0.000,0.000,0.000,0.000,10.010,No
 Zone Internal Gains Nominal, CORRIDOR_TOP_1 ZN,74.44,0.0,N/A,0.000,6.889,3.122,0.000,0.000,0.000,0.000,10.010,No
 Zone Internal Gains Nominal, CORRIDOR_TOP_2 ZN,74.44,0.0,N/A,0.000,6.889,3.122,0.000,0.000,0.000,0.000,10.010,No
 Zone Internal Gains Nominal, DINING_BOT ZN,22.94,12.0,1.912,0.523,6.889,10.764,0.000,0.000,0.000,0.000,17.653,No
 Zone Internal Gains Nominal, DINING_MID ZN,22.94,12.0,1.912,0.523,6.889,10.764,0.000,0.000,0.000,0.000,17.653,No
 Zone Internal Gains Nominal, DINING_TOP ZN,22.94,12.0,1.912,0.523,6.889,10.764,0.000,0.000,0.000,0.000,17.653,No
 Zone Internal Gains Nominal, ENCLOSEDOFFICE_BOT_1 ZN,31.46,2.0,15.728,6.358E-002,6.889,9.365,0.000,0.000,0.000,0.000,16.254,No
 Zone Internal Gains Nominal, ENCLOSEDOFFICE_BOT_2 ZN,31.44,2.0,15.718,6.362E-002,6.889,9.365,0.000,0.000,0.000,0.000,16.254,No
 Zone Internal Gains Nominal, ENCLOSEDOFFICE_BOT_3 ZN,45.43,2.0,22.715,4.402E-002,6.889,9.365,0.000,0.000,0.000,0.000,16.254,No
 Zone Internal Gains Nominal, ENCLOSEDOFFICE_BOT_4 ZN,45.43,2.0,22.715,4.402E-002,6.889,9.365,0.000,0.000,0.000,0.000,16.254,No
 Zone Internal Gains Nominal, ENCLOSEDOFFICE_BOT_5 ZN,31.45,2.0,15.724,6.360E-002,6.889,9.365,0.000,0.000,0.000,0.000,16.254,No
 Zone Internal Gains Nominal, ENCLOSEDOFFICE_BOT_6 ZN,31.45,2.0,15.724,6.360E-002,6.889,0.000,0.000,0.000,0.000,0.000,6.889,No
 Zone Internal Gains Nominal, ENCLOSEDOFFICE_BOT_7 ZN,31.45,2.0,15.724,6.360E-002,6.889,9.365,0.000,0.000,0.000,0.000,16.254,No
 Zone Internal Gains Nominal, ENCLOSEDOFFICE_BOT_8 ZN,31.44,2.0,15.718,6.362E-002,6.889,9.365,0.000,0.000,0.000,0.000,16.254,No
 Zone Internal Gains Nominal, ENCLOSEDOFFICE_BOT_9 ZN,31.44,2.0,15.718,6.362E-002,6.889,9.365,0.000,0.000,0.000,0.000,16.254,No
 Zone Internal Gains Nominal, ENCLOSEDOFFICE_BOT_10 ZN,31.49,2.0,15.745,6.351E-002,6.889,9.365,0.000,0.000,0.000,0.000,16.254,No
 Zone Internal Gains Nominal, ENCLOSEDOFFICE_MID_1 ZN,31.49,2.0,15.745,6.351E-002,6.889,9.365,0.000,0.000,0.000,0.000,16.254,No
 Zone Internal Gains Nominal, ENCLOSEDOFFICE_MID_2 ZN,31.49,2.0,15.745,6.351E-002,6.889,9.365,0.000,0.000,0.000,0.000,16.254,No
 Zone Internal Gains Nominal, ENCLOSEDOFFICE_MID_3 ZN,42.13,2.0,21.063,4.748E-002,6.889,9.365,0.000,0.000,0.000,0.000,16.254,No
 Zone Internal Gains Nominal, ENCLOSEDOFFICE_MID_4 ZN,31.44,2.0,15.718,6.362E-002,6.889,9.365,0.000,0.000,0.000,0.000,16.254,No
 Zone Internal Gains Nominal, ENCLOSEDOFFICE_MID_5 ZN,31.44,2.0,15.718,6.362E-002,6.889,9.365,0.000,0.000,0.000,0.000,16.254,No
 Zone Internal Gains Nominal, ENCLOSEDOFFICE_MID_6 ZN,31.44,2.0,15.718,6.362E-002,6.889,9.365,0.000,0.000,0.000,0.000,16.254,No
 Zone Internal Gains Nominal, ENCLOSEDOFFICE_MID_7 ZN,31.44,2.0,15.718,6.362E-002,6.889,9.365,0.000,0.000,0.000,0.000,16.254,No
 Zone Internal Gains Nominal, ENCLOSEDOFFICE_MID_8 ZN,31.44,2.0,15.718,6.362E-002,6.889,9.365,0.000,0.000,0.000,0.000,16.254,No
 Zone Internal Gains Nominal, ENCLOSEDOFFICE_MID_9 ZN,31.44,2.0,15.718,6.362E-002,6.889,9.365,0.000,0.000,0.000,0.000,16.254,No
 Zone Internal Gains Nominal, ENCLOSEDOFFICE_TOP_1 ZN,31.46,2.0,15.732,6.357E-002,6.889,9.365,0.000,0.000,0.000,0.000,16.254,No
 Zone Internal Gains Nominal, ENCLOSEDOFFICE_TOP_2 ZN,31.49,2.0,15.745,6.351E-002,6.889,9.365,0.000,0.000,0.000,0.000,16.254,No
 Zone Internal Gains Nominal, ENCLOSEDOFFICE_TOP_3 ZN,42.13,2.0,21.063,4.748E-002,6.889,9.365,0.000,0.000,0.000,0.000,16.254,No
 Zone Internal Gains Nominal, ENCLOSEDOFFICE_TOP_4 ZN,31.46,2.0,15.732,6.357E-002,6.889,9.365,0.000,0.000,0.000,0.000,16.254,No
 Zone Internal Gains Nominal, ENCLOSEDOFFICE_TOP_5 ZN,31.44,2.0,15.718,6.362E-002,6.889,9.365,0.000,0.000,0.000,0.000,16.254,No
 Zone Internal Gains Nominal, ENCLOSEDOFFICE_TOP_6 ZN,31.44,2.0,15.718,6.362E-002,6.889,9.365,0.000,0.000,0.000,0.000,16.254,No
 Zone Internal Gains Nominal, ENCLOSEDOFFICE_TOP_7 ZN,31.44,2.0,15.718,6.362E-002,6.889,9.365,0.000,0.000,0.000,0.000,16.254,No
 Zone Internal Gains Nominal, ENCLOSEDOFFICE_TOP_8 ZN,31.44,2.0,15.718,6.362E-002,6.889,9.365,0.000,0.000,0.000,0.000,16.254,No
 Zone Internal Gains Nominal, ENCLOSEDOFFICE_TOP_9 ZN,31.44,2.0,15.718,6.362E-002,6.889,9.365,0.000,0.000,0.000,0.000,16.254,No
 Zone Internal Gains Nominal, FIRSTFLOOR_PLENUM ZN,1660.74,0.0,N/A,0.000,0.000,0.000,0.000,0.000,0.000,0.000,0.000,No
 Zone Internal Gains Nominal, LOBBY_BOT ZN,61.43,7.0,8.775,0.114,6.889,527.671,0.000,0.000,0.000,0.000,534.560,No
 Zone Internal Gains Nominal, LOBBY_MID ZN,61.43,7.0,8.775,0.114,6.889,2.906,0.000,0.000,0.000,0.000,9.795,No
 Zone Internal Gains Nominal, LOBBY_TOP ZN,61.43,7.0,8.775,0.114,6.889,2.906,0.000,0.000,0.000,0.000,9.795,No
 Zone Internal Gains Nominal, LOUNGE_BOT ZN,89.55,29.0,3.088,0.324,6.889,2.906,0.000,0.000,0.000,0.000,9.795,No
 Zone Internal Gains Nominal, MECHANICAL_BOT ZN,49.81,0.0,N/A,0.000,6.889,2.906,0.000,0.000,0.000,0.000,9.795,No
 Zone Internal Gains Nominal, MECHANICAL_MID ZN,49.81,0.0,N/A,0.000,6.889,2.906,0.000,0.000,0.000,0.000,9.795,No
 Zone Internal Gains Nominal, MECHANICAL_TOP ZN,49.81,0.0,N/A,0.000,6.889,2.906,0.000,0.000,0.000,0.000,9.795,No
 Zone Internal Gains Nominal, MIDFLOOR_PLENUM ZN,1660.74,0.0,N/A,0.000,0.000,0.000,0.000,0.000,0.000,0.000,0.000,No
 Zone Internal Gains Nominal, OPENOFFICE_BOT_1 ZN,194.10,10.0,19.410,5.152E-002,6.889,10.333,0.000,0.000,0.000,0.000,17.222,No
 Zone Internal Gains Nominal, OPENOFFICE_BOT_2 ZN,211.92,11.0,19.266,5.191E-002,6.889,10.333,0.000,0.000,0.000,0.000,17.222,No
 Zone Internal Gains Nominal, OPENOFFICE_BOT_3 ZN,188.65,10.0,18.865,5.301E-002,6.889,10.333,0.000,0.000,0.000,0.000,17.222,No
 Zone Internal Gains Nominal, OPENOFFICE_MID_1 ZN,194.10,10.0,19.410,5.152E-002,6.889,10.333,0.000,0.000,0.000,0.000,17.222,No
 Zone Internal Gains Nominal, OPENOFFICE_MID_2 ZN,211.92,11.0,19.266,5.191E-002,6.889,10.333,0.000,0.000,0.000,0.000,17.222,No
 Zone Internal Gains Nominal, OPENOFFICE_MID_3 ZN,176.31,9.0,19.590,5.105E-002,6.889,10.333,0.000,0.000,0.000,0.000,17.222,No
 Zone Internal Gains Nominal, OPENOFFICE_MID_4 ZN,180.41,10.0,18.041,5.543E-002,6.889,10.333,0.000,0.000,0.000,0.000,17.222,No
 Zone Internal Gains Nominal, OPENOFFICE_TOP_1 ZN,194.10,10.0,19.410,5.152E-002,6.889,10.333,0.000,0.000,0.000,0.000,17.222,No
 Zone Internal Gains Nominal, OPENOFFICE_TOP_2 ZN,211.92,11.0,19.266,5.191E-002,6.889,10.333,0.000,0.000,0.000,0.000,17.222,No
 Zone Internal Gains Nominal, OPENOFFICE_TOP_3 ZN,176.31,9.0,19.590,5.105E-002,6.889,10.333,0.000,0.000,0.000,0.000,17.222,No
 Zone Internal Gains Nominal, OPENOFFICE_TOP_4 ZN,180.41,10.0,18.041,5.543E-002,6.889,10.333,0.000,0.000,0.000,0.000,17.222,No
 Zone Internal Gains Nominal, RESTROOM_BOT ZN,59.71,0.0,N/A,0.000,6.889,2.906,0.000,0.000,0.000,0.000,9.795,No
 Zone Internal Gains Nominal, RESTROOM_MID ZN,59.71,0.0,N/A,0.000,6.889,2.906,0.000,0.000,0.000,0.000,9.795,No
 Zone Internal Gains Nominal, RESTROOM_TOP ZN,59.71,0.0,N/A,0.000,6.889,2.906,0.000,0.000,0.000,0.000,9.795,No
 Zone Internal Gains Nominal, STAIR_BOT_1 ZN,30.71,0.0,N/A,0.000,6.889,0.000,0.000,0.000,0.000,0.000,6.889,No
 Zone Internal Gains Nominal, STAIR_BOT_2 ZN,30.71,0.0,N/A,0.000,6.889,0.000,0.000,0.000,0.000,0.000,6.889,No
 Zone Internal Gains Nominal, STAIR_MID_1 ZN,30.71,0.0,N/A,0.000,6.889,0.000,0.000,0.000,0.000,0.000,6.889,No
 Zone Internal Gains Nominal, STAIR_MID_2 ZN,30.71,0.0,N/A,0.000,6.889,0.000,0.000,0.000,0.000,0.000,6.889,No
 Zone Internal Gains Nominal, STAIR_TOP_1 ZN,30.71,0.0,N/A,0.000,6.889,0.000,0.000,0.000,0.000,0.000,6.889,No
 Zone Internal Gains Nominal, STAIR_TOP_2 ZN,30.71,0.0,N/A,0.000,6.889,0.000,0.000,0.000,0.000,0.000,6.889,No
 Zone Internal Gains Nominal, TOPFLOOR_PLENUM ZN,1660.74,0.0,N/A,0.000,0.000,0.000,0.000,0.000,0.000,0.000,0.000,No
! <People Internal Gains Nominal>,Name,Schedule Name,Zone Name,Zone Floor Area {m2},# Zone Occupants,Number of People {},People/Floor Area {person/m2},Floor Area per person {m2/person},Fraction Radiant,Fraction Convected,Sensible Fraction Calculation,Activity level,ASHRAE 55 Warnings,Carbon Dioxide Generation Rate,Nominal Minimum Number of People,Nominal Maximum Number of People
 People Internal Gains Nominal, ACTIVESTORAGE_BOT_1 ZN ACTIVESTORAGE PEOPLE,NON_PEOPLE_SCHEDULE,ACTIVESTORAGE_BOT_1 ZN,36.19,0.0,0.0,0.000,N/A,0.300,0.700,AutoCalculate,ACTIVITY_SCH,No,3.8200E-008,0,0
 People Internal Gains Nominal, ACTIVESTORAGE_BOT_2 ZN ACTIVESTORAGE PEOPLE,NON_PEOPLE_SCHEDULE,ACTIVESTORAGE_BOT_2 ZN,32.22,0.0,0.0,0.000,N/A,0.300,0.700,AutoCalculate,ACTIVITY_SCH,No,3.8200E-008,0,0
 People Internal Gains Nominal, ACTIVESTORAGE_BOT_3 ZN ACTIVESTORAGE PEOPLE,NON_PEOPLE_SCHEDULE,ACTIVESTORAGE_BOT_3 ZN,32.22,0.0,0.0,0.000,N/A,0.300,0.700,AutoCalculate,ACTIVITY_SCH,No,3.8200E-008,0,0
 People Internal Gains Nominal, ACTIVESTORAGE_BOT_4 ZN ACTIVESTORAGE PEOPLE,NON_PEOPLE_SCHEDULE,ACTIVESTORAGE_BOT_4 ZN,13.24,0.0,0.0,0.000,N/A,0.300,0.700,AutoCalculate,ACTIVITY_SCH,No,3.8200E-008,0,0
 People Internal Gains Nominal, ACTIVESTORAGE_MID_1 ZN ACTIVESTORAGE PEOPLE,NON_PEOPLE_SCHEDULE,ACTIVESTORAGE_MID_1 ZN,36.19,0.0,0.0,0.000,N/A,0.300,0.700,AutoCalculate,ACTIVITY_SCH,No,3.8200E-008,0,0
 People Internal Gains Nominal, ACTIVESTORAGE_MID_2 ZN ACTIVESTORAGE PEOPLE,NON_PEOPLE_SCHEDULE,ACTIVESTORAGE_MID_2 ZN,32.22,0.0,0.0,0.000,N/A,0.300,0.700,AutoCalculate,ACTIVITY_SCH,No,3.8200E-008,0,0
 People Internal Gains Nominal, ACTIVESTORAGE_MID_3 ZN ACTIVESTORAGE PEOPLE,NON_PEOPLE_SCHEDULE,ACTIVESTORAGE_MID_3 ZN,32.22,0.0,0.0,0.000,N/A,0.300,0.700,AutoCalculate,ACTIVITY_SCH,No,3.8200E-008,0,0
 People Internal Gains Nominal, ACTIVESTORAGE_MID_4 ZN ACTIVESTORAGE PEOPLE,NON_PEOPLE_SCHEDULE,ACTIVESTORAGE_MID_4 ZN,13.24,0.0,0.0,0.000,N/A,0.300,0.700,AutoCalculate,ACTIVITY_SCH,No,3.8200E-008,0,0
 People Internal Gains Nominal, ACTIVESTORAGE_TOP_1 ZN ACTIVESTORAGE PEOPLE,NON_PEOPLE_SCHEDULE,ACTIVESTORAGE_TOP_1 ZN,36.19,0.0,0.0,0.000,N/A,0.300,0.700,AutoCalculate,ACTIVITY_SCH,No,3.8200E-008,0,0
 People Internal Gains Nominal, ACTIVESTORAGE_TOP_2 ZN ACTIVESTORAGE PEOPLE,NON_PEOPLE_SCHEDULE,ACTIVESTORAGE_TOP_2 ZN,32.22,0.0,0.0,0.000,N/A,0.300,0.700,AutoCalculate,ACTIVITY_SCH,No,3.8200E-008,0,0
 People Internal Gains Nominal, ACTIVESTORAGE_TOP_3 ZN ACTIVESTORAGE PEOPLE,NON_PEOPLE_SCHEDULE,ACTIVESTORAGE_TOP_3 ZN,32.22,0.0,0.0,0.000,N/A,0.300,0.700,AutoCalculate,ACTIVITY_SCH,No,3.8200E-008,0,0
 People Internal Gains Nominal, ACTIVESTORAGE_TOP_4 ZN ACTIVESTORAGE PEOPLE,NON_PEOPLE_SCHEDULE,ACTIVESTORAGE_TOP_4 ZN,13.24,0.0,0.0,0.000,N/A,0.300,0.700,AutoCalculate,ACTIVITY_SCH,No,3.8200E-008,0,0
 People Internal Gains Nominal, CLASSROOM_BOT ZN PEOPLE,CLASSROOM_BOT ZN OCCUPANCY SCHEDULE,CLASSROOM_BOT ZN,29.79,16.0,16.0,0.537,1.862,0.300,0.700,AutoCalculate,ACTIVITY_SCH,No,3.8200E-008,0,16
 People Internal Gains Nominal, CONFROOM_BOT_1 ZN PEOPLE,CONFROOM_BOT_1 ZN OCCUPANCY SCHEDULE,CONFROOM_BOT_1 ZN,43.11,23.0,23.0,0.534,1.874,0.300,0.700,AutoCalculate,ACTIVITY_SCH,No,3.8200E-008,0,23
 People Internal Gains Nominal, CONFROOM_BOT_2 ZN PEOPLE,CONFROOM_BOT_2 ZN OCCUPANCY SCHEDULE,CONFROOM_BOT_2 ZN,43.11,23.0,23.0,0.534,1.874,0.300,0.700,AutoCalculate,ACTIVITY_SCH,No,3.8200E-008,0,23
 People Internal Gains Nominal, CONFROOM_MID_1 ZN PEOPLE,CONFROOM_MID_1 ZN OCCUPANCY SCHEDULE,CONFROOM_MID_1 ZN,43.11,23.0,23.0,0.534,1.874,0.300,0.700,AutoCalculate,ACTIVITY_SCH,No,3.8200E-008,0,23
 People Internal Gains Nominal, CONFROOM_MID_2 ZN PEOPLE,CONFROOM_MID_2 ZN OCCUPANCY SCHEDULE,CONFROOM_MID_2 ZN,43.11,23.0,23.0,0.534,1.874,0.300,0.700,AutoCalculate,ACTIVITY_SCH,No,3.8200E-008,0,23
 People Internal Gains Nominal, CONFROOM_TOP_1 ZN PEOPLE,CONFROOM_TOP_1 ZN OCCUPANCY SCHEDULE,CONFROOM_TOP_1 ZN,43.11,23.0,23.0,0.534,1.874,0.300,0.700,AutoCalculate,ACTIVITY_SCH,No,3.8200E-008,0,23
 People Internal Gains Nominal, CONFROOM_TOP_2 ZN PEOPLE,CONFROOM_TOP_2 ZN OCCUPANCY SCHEDULE,CONFROOM_TOP_2 ZN,43.11,23.0,23.0,0.534,1.874,0.300,0.700,AutoCalculate,ACTIVITY_SCH,No,3.8200E-008,0,23
 People Internal Gains Nominal, CORRIDOR_BOT_1 ZN CORRIDOR PEOPLE,NON_PEOPLE_SCHEDULE,CORRIDOR_BOT_1 ZN,74.44,0.0,0.0,0.000,N/A,0.300,0.700,AutoCalculate,ACTIVITY_SCH,No,3.8200E-008,0,0
 People Internal Gains Nominal, CORRIDOR_BOT_2 ZN CORRIDOR PEOPLE,NON_PEOPLE_SCHEDULE,CORRIDOR_BOT_2 ZN,74.44,0.0,0.0,0.000,N/A,0.300,0.700,AutoCalculate,ACTIVITY_SCH,No,3.8200E-008,0,0
 People Internal Gains Nominal, CORRIDOR_MID_1 ZN CORRIDOR PEOPLE,NON_PEOPLE_SCHEDULE,CORRIDOR_MID_1 ZN,74.44,0.0,0.0,0.000,N/A,0.300,0.700,AutoCalculate,ACTIVITY_SCH,No,3.8200E-008,0,0
 People Internal Gains Nominal, CORRIDOR_MID_2 ZN CORRIDOR PEOPLE,NON_PEOPLE_SCHEDULE,CORRIDOR_MID_2 ZN,74.44,0.0,0.0,0.000,N/A,0.300,0.700,AutoCalculate,ACTIVITY_SCH,No,3.8200E-008,0,0
 People Internal Gains Nominal, CORRIDOR_TOP_1 ZN CORRIDOR PEOPLE,NON_PEOPLE_SCHEDULE,CORRIDOR_TOP_1 ZN,74.44,0.0,0.0,0.000,N/A,0.300,0.700,AutoCalculate,ACTIVITY_SCH,No,3.8200E-008,0,0
 People Internal Gains Nominal, CORRIDOR_TOP_2 ZN CORRIDOR PEOPLE,NON_PEOPLE_SCHEDULE,CORRIDOR_TOP_2 ZN,74.44,0.0,0.0,0.000,N/A,0.300,0.700,AutoCalculate,ACTIVITY_SCH,No,3.8200E-008,0,0
 People Internal Gains Nominal, DINING_BOT ZN PEOPLE,DINING_BOT ZN OCCUPANCY SCHEDULE,DINING_BOT ZN,22.94,12.0,12.0,0.523,1.912,0.300,0.700,AutoCalculate,ACTIVITY_SCH,No,3.8200E-008,0,12
 People Internal Gains Nominal, DINING_MID ZN PEOPLE,DINING_MID ZN OCCUPANCY SCHEDULE,DINING_MID ZN,22.94,12.0,12.0,0.523,1.912,0.300,0.700,AutoCalculate,ACTIVITY_SCH,No,3.8200E-008,0,12
 People Internal Gains Nominal, DINING_TOP ZN PEOPLE,DINING_TOP ZN OCCUPANCY SCHEDULE,DINING_TOP ZN,22.94,12.0,12.0,0.523,1.912,0.300,0.700,AutoCalculate,ACTIVITY_SCH,No,3.8200E-008,0,12
 People Internal Gains Nominal, ENCLOSEDOFFICE_BOT_1 ZN PEOPLE,ENCLOSEDOFFICE_BOT_1 ZN OCCUPANCY SCHEDULE,ENCLOSEDOFFICE_BOT_1 ZN,31.46,2.0,2.0,6.358E-002,15.728,0.300,0.700,AutoCalculate,ACTIVITY_SCH,No,3.8200E-008,0,2
 People Internal Gains Nominal, ENCLOSEDOFFICE_BOT_2 ZN PEOPLE,ENCLOSEDOFFICE_BOT_2 ZN OCCUPANCY SCHEDULE,ENCLOSEDOFFICE_BOT_2 ZN,31.44,2.0,2.0,6.362E-002,15.718,0.300,0.700,AutoCalculate,ACTIVITY_SCH,No,3.8200E-008,0,2
 People Internal Gains Nominal, ENCLOSEDOFFICE_BOT_3 ZN PEOPLE,ENCLOSEDOFFICE_BOT_3 ZN OCCUPANCY SCHEDULE,ENCLOSEDOFFICE_BOT_3 ZN,45.43,2.0,2.0,4.402E-002,22.715,0.300,0.700,AutoCalculate,ACTIVITY_SCH,No,3.8200E-008,0,2
 People Internal Gains Nominal, ENCLOSEDOFFICE_BOT_4 ZN PEOPLE,ENCLOSEDOFFICE_BOT_4 ZN OCCUPANCY SCHEDULE,ENCLOSEDOFFICE_BOT_4 ZN,45.43,2.0,2.0,4.402E-002,22.715,0.300,0.700,AutoCalculate,ACTIVITY_SCH,No,3.8200E-008,0,2
 People Internal Gains Nominal, ENCLOSEDOFFICE_BOT_5 ZN PEOPLE,ENCLOSEDOFFICE_BOT_5 ZN OCCUPANCY SCHEDULE,ENCLOSEDOFFICE_BOT_5 ZN,31.45,2.0,2.0,6.360E-002,15.724,0.300,0.700,AutoCalculate,ACTIVITY_SCH,No,3.8200E-008,0,2
 People Internal Gains Nominal, ENCLOSEDOFFICE_BOT_6 ZN PEOPLE,ENCLOSEDOFFICE_BOT_6 ZN OCCUPANCY SCHEDULE,ENCLOSEDOFFICE_BOT_6 ZN,31.45,2.0,2.0,6.360E-002,15.724,0.300,0.700,AutoCalculate,ACTIVITY_SCH,No,3.8200E-008,0,2
 People Internal Gains Nominal, ENCLOSEDOFFICE_BOT_7 ZN PEOPLE,ENCLOSEDOFFICE_BOT_7 ZN OCCUPANCY SCHEDULE,ENCLOSEDOFFICE_BOT_7 ZN,31.45,2.0,2.0,6.360E-002,15.724,0.300,0.700,AutoCalculate,ACTIVITY_SCH,No,3.8200E-008,0,2
 People Internal Gains Nominal, ENCLOSEDOFFICE_BOT_8 ZN PEOPLE,ENCLOSEDOFFICE_BOT_8 ZN OCCUPANCY SCHEDULE,ENCLOSEDOFFICE_BOT_8 ZN,31.44,2.0,2.0,6.362E-002,15.718,0.300,0.700,AutoCalculate,ACTIVITY_SCH,No,3.8200E-008,0,2
 People Internal Gains Nominal, ENCLOSEDOFFICE_BOT_9 ZN PEOPLE,ENCLOSEDOFFICE_BOT_9 ZN OCCUPANCY SCHEDULE,ENCLOSEDOFFICE_BOT_9 ZN,31.44,2.0,2.0,6.362E-002,15.718,0.300,0.700,AutoCalculate,ACTIVITY_SCH,No,3.8200E-008,0,2
 People Internal Gains Nominal, ENCLOSEDOFFICE_BOT_10 ZN PEOPLE,ENCLOSEDOFFICE_BOT_10 ZN OCCUPANCY SCHEDULE,ENCLOSEDOFFICE_BOT_10 ZN,31.49,2.0,2.0,6.351E-002,15.745,0.300,0.700,AutoCalculate,ACTIVITY_SCH,No,3.8200E-008,0,2
 People Internal Gains Nominal, ENCLOSEDOFFICE_MID_1 ZN PEOPLE,ENCLOSEDOFFICE_MID_1 ZN OCCUPANCY SCHEDULE,ENCLOSEDOFFICE_MID_1 ZN,31.49,2.0,2.0,6.351E-002,15.745,0.300,0.700,AutoCalculate,ACTIVITY_SCH,No,3.8200E-008,0,2
 People Internal Gains Nominal, ENCLOSEDOFFICE_MID_2 ZN PEOPLE,ENCLOSEDOFFICE_MID_2 ZN OCCUPANCY SCHEDULE,ENCLOSEDOFFICE_MID_2 ZN,31.49,2.0,2.0,6.351E-002,15.745,0.300,0.700,AutoCalculate,ACTIVITY_SCH,No,3.8200E-008,0,2
 People Internal Gains Nominal, ENCLOSEDOFFICE_MID_3 ZN PEOPLE,ENCLOSEDOFFICE_MID_3 ZN OCCUPANCY SCHEDULE,ENCLOSEDOFFICE_MID_3 ZN,42.13,2.0,2.0,4.748E-002,21.063,0.300,0.700,AutoCalculate,ACTIVITY_SCH,No,3.8200E-008,0,2
 People Internal Gains Nominal, ENCLOSEDOFFICE_MID_4 ZN PEOPLE,ENCLOSEDOFFICE_MID_4 ZN OCCUPANCY SCHEDULE,ENCLOSEDOFFICE_MID_4 ZN,31.44,2.0,2.0,6.362E-002,15.718,0.300,0.700,AutoCalculate,ACTIVITY_SCH,No,3.8200E-008,0,2
 People Internal Gains Nominal, ENCLOSEDOFFICE_MID_5 ZN PEOPLE,ENCLOSEDOFFICE_MID_5 ZN OCCUPANCY SCHEDULE,ENCLOSEDOFFICE_MID_5 ZN,31.44,2.0,2.0,6.362E-002,15.718,0.300,0.700,AutoCalculate,ACTIVITY_SCH,No,3.8200E-008,0,2
 People Internal Gains Nominal, ENCLOSEDOFFICE_MID_6 ZN PEOPLE,ENCLOSEDOFFICE_MID_6 ZN OCCUPANCY SCHEDULE,ENCLOSEDOFFICE_MID_6 ZN,31.44,2.0,2.0,6.362E-002,15.718,0.300,0.700,AutoCalculate,ACTIVITY_SCH,No,3.8200E-008,0,2
 People Internal Gains Nominal, ENCLOSEDOFFICE_MID_7 ZN PEOPLE,ENCLOSEDOFFICE_MID_7 ZN OCCUPANCY SCHEDULE,ENCLOSEDOFFICE_MID_7 ZN,31.44,2.0,2.0,6.362E-002,15.718,0.300,0.700,AutoCalculate,ACTIVITY_SCH,No,3.8200E-008,0,2
 People Internal Gains Nominal, ENCLOSEDOFFICE_MID_8 ZN PEOPLE,ENCLOSEDOFFICE_MID_8 ZN OCCUPANCY SCHEDULE,ENCLOSEDOFFICE_MID_8 ZN,31.44,2.0,2.0,6.362E-002,15.718,0.300,0.700,AutoCalculate,ACTIVITY_SCH,No,3.8200E-008,0,2
 People Internal Gains Nominal, ENCLOSEDOFFICE_MID_9 ZN PEOPLE,ENCLOSEDOFFICE_MID_9 ZN OCCUPANCY SCHEDULE,ENCLOSEDOFFICE_MID_9 ZN,31.44,2.0,2.0,6.362E-002,15.718,0.300,0.700,AutoCalculate,ACTIVITY_SCH,No,3.8200E-008,0,2
 People Internal Gains Nominal, ENCLOSEDOFFICE_TOP_1 ZN PEOPLE,ENCLOSEDOFFICE_TOP_1 ZN OCCUPANCY SCHEDULE,ENCLOSEDOFFICE_TOP_1 ZN,31.46,2.0,2.0,6.357E-002,15.732,0.300,0.700,AutoCalculate,ACTIVITY_SCH,No,3.8200E-008,0,2
 People Internal Gains Nominal, ENCLOSEDOFFICE_TOP_2 ZN PEOPLE,ENCLOSEDOFFICE_TOP_2 ZN OCCUPANCY SCHEDULE,ENCLOSEDOFFICE_TOP_2 ZN,31.49,2.0,2.0,6.351E-002,15.745,0.300,0.700,AutoCalculate,ACTIVITY_SCH,No,3.8200E-008,0,2
 People Internal Gains Nominal, ENCLOSEDOFFICE_TOP_3 ZN PEOPLE,ENCLOSEDOFFICE_TOP_3 ZN OCCUPANCY SCHEDULE,ENCLOSEDOFFICE_TOP_3 ZN,42.13,2.0,2.0,4.748E-002,21.063,0.300,0.700,AutoCalculate,ACTIVITY_SCH,No,3.8200E-008,0,2
 People Internal Gains Nominal, ENCLOSEDOFFICE_TOP_4 ZN PEOPLE,ENCLOSEDOFFICE_TOP_4 ZN OCCUPANCY SCHEDULE,ENCLOSEDOFFICE_TOP_4 ZN,31.46,2.0,2.0,6.357E-002,15.732,0.300,0.700,AutoCalculate,ACTIVITY_SCH,No,3.8200E-008,0,2
 People Internal Gains Nominal, ENCLOSEDOFFICE_TOP_5 ZN PEOPLE,ENCLOSEDOFFICE_TOP_5 ZN OCCUPANCY SCHEDULE,ENCLOSEDOFFICE_TOP_5 ZN,31.44,2.0,2.0,6.362E-002,15.718,0.300,0.700,AutoCalculate,ACTIVITY_SCH,No,3.8200E-008,0,2
 People Internal Gains Nominal, ENCLOSEDOFFICE_TOP_6 ZN PEOPLE,ENCLOSEDOFFICE_TOP_6 ZN OCCUPANCY SCHEDULE,ENCLOSEDOFFICE_TOP_6 ZN,31.44,2.0,2.0,6.362E-002,15.718,0.300,0.700,AutoCalculate,ACTIVITY_SCH,No,3.8200E-008,0,2
 People Internal Gains Nominal, ENCLOSEDOFFICE_TOP_7 ZN PEOPLE,ENCLOSEDOFFICE_TOP_7 ZN OCCUPANCY SCHEDULE,ENCLOSEDOFFICE_TOP_7 ZN,31.44,2.0,2.0,6.362E-002,15.718,0.300,0.700,AutoCalculate,ACTIVITY_SCH,No,3.8200E-008,0,2
 People Internal Gains Nominal, ENCLOSEDOFFICE_TOP_8 ZN PEOPLE,ENCLOSEDOFFICE_TOP_8 ZN OCCUPANCY SCHEDULE,ENCLOSEDOFFICE_TOP_8 ZN,31.44,2.0,2.0,6.362E-002,15.718,0.300,0.700,AutoCalculate,ACTIVITY_SCH,No,3.8200E-008,0,2
 People Internal Gains Nominal, ENCLOSEDOFFICE_TOP_9 ZN PEOPLE,ENCLOSEDOFFICE_TOP_9 ZN OCCUPANCY SCHEDULE,ENCLOSEDOFFICE_TOP_9 ZN,31.44,2.0,2.0,6.362E-002,15.718,0.300,0.700,AutoCalculate,ACTIVITY_SCH,No,3.8200E-008,0,2
 People Internal Gains Nominal, LOBBY_BOT ZN PEOPLE,LOBBY_BOT ZN OCCUPANCY SCHEDULE,LOBBY_BOT ZN,61.43,7.0,7.0,0.114,8.775,0.300,0.700,AutoCalculate,ACTIVITY_SCH,No,3.8200E-008,0,7
 People Internal Gains Nominal, LOBBY_MID ZN PEOPLE,LOBBY_MID ZN OCCUPANCY SCHEDULE,LOBBY_MID ZN,61.43,7.0,7.0,0.114,8.775,0.300,0.700,AutoCalculate,ACTIVITY_SCH,No,3.8200E-008,0,7
 People Internal Gains Nominal, LOBBY_TOP ZN PEOPLE,LOBBY_TOP ZN OCCUPANCY SCHEDULE,LOBBY_TOP ZN,61.43,7.0,7.0,0.114,8.775,0.300,0.700,AutoCalculate,ACTIVITY_SCH,No,3.8200E-008,0,7
 People Internal Gains Nominal, LOUNGE_BOT ZN PEOPLE,LOUNGE_BOT ZN OCCUPANCY SCHEDULE,LOUNGE_BOT ZN,89.55,29.0,29.0,0.324,3.088,0.300,0.700,AutoCalculate,ACTIVITY_SCH,No,3.8200E-008,0,29
 People Internal Gains Nominal, MECHANICAL_BOT ZN MECHANICAL PEOPLE,NON_PEOPLE_SCHEDULE,MECHANICAL_BOT ZN,49.81,0.0,0.0,0.000,N/A,0.300,0.700,AutoCalculate,ACTIVITY_SCH,No,3.8200E-008,0,0
 People Internal Gains Nominal, MECHANICAL_MID ZN MECHANICAL PEOPLE,NON_PEOPLE_SCHEDULE,MECHANICAL_MID ZN,49.81,0.0,0.0,0.000,N/A,0.300,0.700,AutoCalculate,ACTIVITY_SCH,No,3.8200E-008,0,0
 People Internal Gains Nominal, MECHANICAL_TOP ZN MECHANICAL PEOPLE,NON_PEOPLE_SCHEDULE,MECHANICAL_TOP ZN,49.81,0.0,0.0,0.000,N/A,0.300,0.700,AutoCalculate,ACTIVITY_SCH,No,3.8200E-008,0,0
 People Internal Gains Nominal, OPENOFFICE_BOT_1 ZN PEOPLE,OPENOFFICE_BOT_1 ZN OCCUPANCY SCHEDULE,OPENOFFICE_BOT_1 ZN,194.10,10.0,10.0,5.152E-002,19.410,0.300,0.700,AutoCalculate,ACTIVITY_SCH,No,3.8200E-008,0,10
 People Internal Gains Nominal, OPENOFFICE_BOT_2 ZN PEOPLE,OPENOFFICE_BOT_2 ZN OCCUPANCY SCHEDULE,OPENOFFICE_BOT_2 ZN,211.92,11.0,11.0,5.191E-002,19.266,0.300,0.700,AutoCalculate,ACTIVITY_SCH,No,3.8200E-008,0,11
 People Internal Gains Nominal, OPENOFFICE_BOT_3 ZN PEOPLE,OPENOFFICE_BOT_3 ZN OCCUPANCY SCHEDULE,OPENOFFICE_BOT_3 ZN,188.65,10.0,10.0,5.301E-002,18.865,0.300,0.700,AutoCalculate,ACTIVITY_SCH,No,3.8200E-008,0,10
 People Internal Gains Nominal, OPENOFFICE_MID_1 ZN PEOPLE,OPENOFFICE_MID_1 ZN OCCUPANCY SCHEDULE,OPENOFFICE_MID_1 ZN,194.10,10.0,10.0,5.152E-002,19.410,0.300,0.700,AutoCalculate,ACTIVITY_SCH,No,3.8200E-008,0,10
 People Internal Gains Nominal, OPENOFFICE_MID_2 ZN PEOPLE,OPENOFFICE_MID_2 ZN OCCUPANCY SCHEDULE,OPENOFFICE_MID_2 ZN,211.92,11.0,11.0,5.191E-002,19.266,0.300,0.700,AutoCalculate,ACTIVITY_SCH,No,3.8200E-008,0,11
 People Internal Gains Nominal, OPENOFFICE_MID_3 ZN PEOPLE,OPENOFFICE_MID_3 ZN OCCUPANCY SCHEDULE,OPENOFFICE_MID_3 ZN,176.31,9.0,9.0,5.105E-002,19.590,0.300,0.700,AutoCalculate,ACTIVITY_SCH,No,3.8200E-008,0,9
 People Internal Gains Nominal, OPENOFFICE_MID_4 ZN PEOPLE,OPENOFFICE_MID_4 ZN OCCUPANCY SCHEDULE,OPENOFFICE_MID_4 ZN,180.41,10.0,10.0,5.543E-002,18.041,0.300,0.700,AutoCalculate,ACTIVITY_SCH,No,3.8200E-008,0,10
 People Internal Gains Nominal, OPENOFFICE_TOP_1 ZN PEOPLE,OPENOFFICE_TOP_1 ZN OCCUPANCY SCHEDULE,OPENOFFICE_TOP_1 ZN,194.10,10.0,10.0,5.152E-002,19.410,0.300,0.700,AutoCalculate,ACTIVITY_SCH,No,3.8200E-008,0,10
 People Internal Gains Nominal, OPENOFFICE_TOP_2 ZN PEOPLE,OPENOFFICE_TOP_2 ZN OCCUPANCY SCHEDULE,OPENOFFICE_TOP_2 ZN,211.92,11.0,11.0,5.191E-002,19.266,0.300,0.700,AutoCalculate,ACTIVITY_SCH,No,3.8200E-008,0,11
 People Internal Gains Nominal, OPENOFFICE_TOP_3 ZN PEOPLE,OPENOFFICE_TOP_3 ZN OCCUPANCY SCHEDULE,OPENOFFICE_TOP_3 ZN,176.31,9.0,9.0,5.105E-002,19.590,0.300,0.700,AutoCalculate,ACTIVITY_SCH,No,3.8200E-008,0,9
 People Internal Gains Nominal, OPENOFFICE_TOP_4 ZN PEOPLE,OPENOFFICE_TOP_4 ZN OCCUPANCY SCHEDULE,OPENOFFICE_TOP_4 ZN,180.41,10.0,10.0,5.543E-002,18.041,0.300,0.700,AutoCalculate,ACTIVITY_SCH,No,3.8200E-008,0,10
 People Internal Gains Nominal, RESTROOM_BOT ZN RESTROOM PEOPLE,NON_PEOPLE_SCHEDULE,RESTROOM_BOT ZN,59.71,0.0,0.0,0.000,N/A,0.300,0.700,AutoCalculate,ACTIVITY_SCH,No,3.8200E-008,0,0
 People Internal Gains Nominal, RESTROOM_MID ZN RESTROOM PEOPLE,NON_PEOPLE_SCHEDULE,RESTROOM_MID ZN,59.71,0.0,0.0,0.000,N/A,0.300,0.700,AutoCalculate,ACTIVITY_SCH,No,3.8200E-008,0,0
 People Internal Gains Nominal, RESTROOM_TOP ZN RESTROOM PEOPLE,NON_PEOPLE_SCHEDULE,RESTROOM_TOP ZN,59.71,0.0,0.0,0.000,N/A,0.300,0.700,AutoCalculate,ACTIVITY_SCH,No,3.8200E-008,0,0
 People Internal Gains Nominal, SPAWN-ZONE-ACTIVESTORAGE_TOP_1 ZN-RADIANTGAINS,SPAWN-PEOPLE-SCHEDULE,ACTIVESTORAGE_TOP_1 ZN,36.19,0.0,0.0,0.000,N/A,0.000,1.000,AutoCalculate,SPAWN-PEOPLEACTIVITY-SCHEDULE,No,3.8200E-008,0,0
 People Internal Gains Nominal, SPAWN-ZONE-ACTIVESTORAGE_TOP_2 ZN-RADIANTGAINS,SPAWN-PEOPLE-SCHEDULE,ACTIVESTORAGE_TOP_2 ZN,32.22,0.0,0.0,0.000,N/A,0.000,1.000,AutoCalculate,SPAWN-PEOPLEACTIVITY-SCHEDULE,No,3.8200E-008,0,0
 People Internal Gains Nominal, SPAWN-ZONE-ACTIVESTORAGE_TOP_3 ZN-RADIANTGAINS,SPAWN-PEOPLE-SCHEDULE,ACTIVESTORAGE_TOP_3 ZN,32.22,0.0,0.0,0.000,N/A,0.000,1.000,AutoCalculate,SPAWN-PEOPLEACTIVITY-SCHEDULE,No,3.8200E-008,0,0
 People Internal Gains Nominal, SPAWN-ZONE-ACTIVESTORAGE_TOP_4 ZN-RADIANTGAINS,SPAWN-PEOPLE-SCHEDULE,ACTIVESTORAGE_TOP_4 ZN,13.24,0.0,0.0,0.000,N/A,0.000,1.000,AutoCalculate,SPAWN-PEOPLEACTIVITY-SCHEDULE,No,3.8200E-008,0,0
 People Internal Gains Nominal, SPAWN-ZONE-CONFROOM_TOP_1 ZN-RADIANTGAINS,SPAWN-PEOPLE-SCHEDULE,CONFROOM_TOP_1 ZN,43.11,23.0,0.0,0.000,N/A,0.000,1.000,AutoCalculate,SPAWN-PEOPLEACTIVITY-SCHEDULE,No,3.8200E-008,0,0
 People Internal Gains Nominal, SPAWN-ZONE-CONFROOM_TOP_2 ZN-RADIANTGAINS,SPAWN-PEOPLE-SCHEDULE,CONFROOM_TOP_2 ZN,43.11,23.0,0.0,0.000,N/A,0.000,1.000,AutoCalculate,SPAWN-PEOPLEACTIVITY-SCHEDULE,No,3.8200E-008,0,0
 People Internal Gains Nominal, SPAWN-ZONE-CORRIDOR_TOP_1 ZN-RADIANTGAINS,SPAWN-PEOPLE-SCHEDULE,CORRIDOR_TOP_1 ZN,74.44,0.0,0.0,0.000,N/A,0.000,1.000,AutoCalculate,SPAWN-PEOPLEACTIVITY-SCHEDULE,No,3.8200E-008,0,0
 People Internal Gains Nominal, SPAWN-ZONE-CORRIDOR_TOP_2 ZN-RADIANTGAINS,SPAWN-PEOPLE-SCHEDULE,CORRIDOR_TOP_2 ZN,74.44,0.0,0.0,0.000,N/A,0.000,1.000,AutoCalculate,SPAWN-PEOPLEACTIVITY-SCHEDULE,No,3.8200E-008,0,0
 People Internal Gains Nominal, SPAWN-ZONE-DINING_TOP ZN-RADIANTGAINS,SPAWN-PEOPLE-SCHEDULE,DINING_TOP ZN,22.94,12.0,0.0,0.000,N/A,0.000,1.000,AutoCalculate,SPAWN-PEOPLEACTIVITY-SCHEDULE,No,3.8200E-008,0,0
 People Internal Gains Nominal, SPAWN-ZONE-ENCLOSEDOFFICE_TOP_1 ZN-RADIANTGAINS,SPAWN-PEOPLE-SCHEDULE,ENCLOSEDOFFICE_TOP_1 ZN,31.46,2.0,0.0,0.000,N/A,0.000,1.000,AutoCalculate,SPAWN-PEOPLEACTIVITY-SCHEDULE,No,3.8200E-008,0,0
 People Internal Gains Nominal, SPAWN-ZONE-ENCLOSEDOFFICE_TOP_2 ZN-RADIANTGAINS,SPAWN-PEOPLE-SCHEDULE,ENCLOSEDOFFICE_TOP_2 ZN,31.49,2.0,0.0,0.000,N/A,0.000,1.000,AutoCalculate,SPAWN-PEOPLEACTIVITY-SCHEDULE,No,3.8200E-008,0,0
 People Internal Gains Nominal, SPAWN-ZONE-ENCLOSEDOFFICE_TOP_3 ZN-RADIANTGAINS,SPAWN-PEOPLE-SCHEDULE,ENCLOSEDOFFICE_TOP_3 ZN,42.13,2.0,0.0,0.000,N/A,0.000,1.000,AutoCalculate,SPAWN-PEOPLEACTIVITY-SCHEDULE,No,3.8200E-008,0,0
 People Internal Gains Nominal, SPAWN-ZONE-LOBBY_TOP ZN-RADIANTGAINS,SPAWN-PEOPLE-SCHEDULE,LOBBY_TOP ZN,61.43,7.0,0.0,0.000,N/A,0.000,1.000,AutoCalculate,SPAWN-PEOPLEACTIVITY-SCHEDULE,No,3.8200E-008,0,0
 People Internal Gains Nominal, SPAWN-ZONE-MECHANICAL_TOP ZN-RADIANTGAINS,SPAWN-PEOPLE-SCHEDULE,MECHANICAL_TOP ZN,49.81,0.0,0.0,0.000,N/A,0.000,1.000,AutoCalculate,SPAWN-PEOPLEACTIVITY-SCHEDULE,No,3.8200E-008,0,0
 People Internal Gains Nominal, SPAWN-ZONE-OPENOFFICE_TOP_1 ZN-RADIANTGAINS,SPAWN-PEOPLE-SCHEDULE,OPENOFFICE_TOP_1 ZN,194.10,10.0,0.0,0.000,N/A,0.000,1.000,AutoCalculate,SPAWN-PEOPLEACTIVITY-SCHEDULE,No,3.8200E-008,0,0
 People Internal Gains Nominal, SPAWN-ZONE-OPENOFFICE_TOP_2 ZN-RADIANTGAINS,SPAWN-PEOPLE-SCHEDULE,OPENOFFICE_TOP_2 ZN,211.92,11.0,0.0,0.000,N/A,0.000,1.000,AutoCalculate,SPAWN-PEOPLEACTIVITY-SCHEDULE,No,3.8200E-008,0,0
 People Internal Gains Nominal, SPAWN-ZONE-OPENOFFICE_TOP_3 ZN-RADIANTGAINS,SPAWN-PEOPLE-SCHEDULE,OPENOFFICE_TOP_3 ZN,176.31,9.0,0.0,0.000,N/A,0.000,1.000,AutoCalculate,SPAWN-PEOPLEACTIVITY-SCHEDULE,No,3.8200E-008,0,0
 People Internal Gains Nominal, SPAWN-ZONE-OPENOFFICE_TOP_4 ZN-RADIANTGAINS,SPAWN-PEOPLE-SCHEDULE,OPENOFFICE_TOP_4 ZN,180.41,10.0,0.0,0.000,N/A,0.000,1.000,AutoCalculate,SPAWN-PEOPLEACTIVITY-SCHEDULE,No,3.8200E-008,0,0
 People Internal Gains Nominal, SPAWN-ZONE-RESTROOM_TOP ZN-RADIANTGAINS,SPAWN-PEOPLE-SCHEDULE,RESTROOM_TOP ZN,59.71,0.0,0.0,0.000,N/A,0.000,1.000,AutoCalculate,SPAWN-PEOPLEACTIVITY-SCHEDULE,No,3.8200E-008,0,0
 People Internal Gains Nominal, SPAWN-ZONE-STAIR_TOP_1 ZN-RADIANTGAINS,SPAWN-PEOPLE-SCHEDULE,STAIR_TOP_1 ZN,30.71,0.0,0.0,0.000,N/A,0.000,1.000,AutoCalculate,SPAWN-PEOPLEACTIVITY-SCHEDULE,No,3.8200E-008,0,0
 People Internal Gains Nominal, SPAWN-ZONE-STAIR_TOP_2 ZN-RADIANTGAINS,SPAWN-PEOPLE-SCHEDULE,STAIR_TOP_2 ZN,30.71,0.0,0.0,0.000,N/A,0.000,1.000,AutoCalculate,SPAWN-PEOPLEACTIVITY-SCHEDULE,No,3.8200E-008,0,0
 People Internal Gains Nominal, STAIR_BOT_1 ZN STAIR PEOPLE,NON_PEOPLE_SCHEDULE,STAIR_BOT_1 ZN,30.71,0.0,0.0,0.000,N/A,0.300,0.700,AutoCalculate,ACTIVITY_SCH,No,3.8200E-008,0,0
 People Internal Gains Nominal, STAIR_BOT_2 ZN STAIR PEOPLE,NON_PEOPLE_SCHEDULE,STAIR_BOT_2 ZN,30.71,0.0,0.0,0.000,N/A,0.300,0.700,AutoCalculate,ACTIVITY_SCH,No,3.8200E-008,0,0
 People Internal Gains Nominal, STAIR_MID_1 ZN STAIR PEOPLE,NON_PEOPLE_SCHEDULE,STAIR_MID_1 ZN,30.71,0.0,0.0,0.000,N/A,0.300,0.700,AutoCalculate,ACTIVITY_SCH,No,3.8200E-008,0,0
 People Internal Gains Nominal, STAIR_MID_2 ZN STAIR PEOPLE,NON_PEOPLE_SCHEDULE,STAIR_MID_2 ZN,30.71,0.0,0.0,0.000,N/A,0.300,0.700,AutoCalculate,ACTIVITY_SCH,No,3.8200E-008,0,0
 People Internal Gains Nominal, STAIR_TOP_1 ZN STAIR PEOPLE,NON_PEOPLE_SCHEDULE,STAIR_TOP_1 ZN,30.71,0.0,0.0,0.000,N/A,0.300,0.700,AutoCalculate,ACTIVITY_SCH,No,3.8200E-008,0,0
 People Internal Gains Nominal, STAIR_TOP_2 ZN STAIR PEOPLE,NON_PEOPLE_SCHEDULE,STAIR_TOP_2 ZN,30.71,0.0,0.0,0.000,N/A,0.300,0.700,AutoCalculate,ACTIVITY_SCH,No,3.8200E-008,0,0
! <Lights Internal Gains Nominal>,Name,Schedule Name,Zone Name,Zone Floor Area {m2},# Zone Occupants,Lighting Level {W},Lights/Floor Area {W/m2},Lights per person {W/person},Fraction Return Air,Fraction Radiant,Fraction Short Wave,Fraction Convected,Fraction Replaceable,End-Use Category,Nominal Minimum Lighting Level {W},Nominal Maximum Lighting Level {W}
 Lights Internal Gains Nominal, ACTIVESTORAGE_BOT_1 ZN_LIGHTS,BLDG_LIGHT_SCH,ACTIVESTORAGE_BOT_1 ZN,36.19,0.0,249.277,6.889,N/A,0.000,0.700,0.200,0.100,1.000,LightsWired,0.000,249.277
 Lights Internal Gains Nominal, ACTIVESTORAGE_BOT_2 ZN_LIGHTS,BLDG_LIGHT_SCH,ACTIVESTORAGE_BOT_2 ZN,32.22,0.0,221.988,6.889,N/A,0.000,0.700,0.200,0.100,1.000,LightsWired,0.000,221.988
 Lights Internal Gains Nominal, ACTIVESTORAGE_BOT_3 ZN_LIGHTS,BLDG_LIGHT_SCH,ACTIVESTORAGE_BOT_3 ZN,32.22,0.0,221.988,6.889,N/A,0.000,0.700,0.200,0.100,1.000,LightsWired,0.000,221.988
 Lights Internal Gains Nominal, ACTIVESTORAGE_BOT_4 ZN_LIGHTS,BLDG_LIGHT_SCH,ACTIVESTORAGE_BOT_4 ZN,13.24,0.0,91.225,6.889,N/A,0.000,0.700,0.200,0.100,1.000,LightsWired,0.000,91.225
 Lights Internal Gains Nominal, ACTIVESTORAGE_MID_1 ZN_LIGHTS,BLDG_LIGHT_SCH,ACTIVESTORAGE_MID_1 ZN,36.19,0.0,249.277,6.889,N/A,0.000,0.700,0.200,0.100,1.000,LightsWired,0.000,249.277
 Lights Internal Gains Nominal, ACTIVESTORAGE_MID_2 ZN_LIGHTS,BLDG_LIGHT_SCH,ACTIVESTORAGE_MID_2 ZN,32.22,0.0,221.988,6.889,N/A,0.000,0.700,0.200,0.100,1.000,LightsWired,0.000,221.988
 Lights Internal Gains Nominal, ACTIVESTORAGE_MID_3 ZN_LIGHTS,BLDG_LIGHT_SCH,ACTIVESTORAGE_MID_3 ZN,32.22,0.0,221.988,6.889,N/A,0.000,0.700,0.200,0.100,1.000,LightsWired,0.000,221.988
 Lights Internal Gains Nominal, ACTIVESTORAGE_MID_4 ZN_LIGHTS,BLDG_LIGHT_SCH,ACTIVESTORAGE_MID_4 ZN,13.24,0.0,91.225,6.889,N/A,0.000,0.700,0.200,0.100,1.000,LightsWired,0.000,91.225
 Lights Internal Gains Nominal, ACTIVESTORAGE_TOP_1 ZN_LIGHTS,BLDG_LIGHT_SCH,ACTIVESTORAGE_TOP_1 ZN,36.19,0.0,249.277,6.889,N/A,0.000,0.700,0.200,0.100,1.000,LightsWired,0.000,249.277
 Lights Internal Gains Nominal, ACTIVESTORAGE_TOP_2 ZN_LIGHTS,BLDG_LIGHT_SCH,ACTIVESTORAGE_TOP_2 ZN,32.22,0.0,221.988,6.889,N/A,0.000,0.700,0.200,0.100,1.000,LightsWired,0.000,221.988
 Lights Internal Gains Nominal, ACTIVESTORAGE_TOP_3 ZN_LIGHTS,BLDG_LIGHT_SCH,ACTIVESTORAGE_TOP_3 ZN,32.22,0.0,221.988,6.889,N/A,0.000,0.700,0.200,0.100,1.000,LightsWired,0.000,221.988
 Lights Internal Gains Nominal, ACTIVESTORAGE_TOP_4 ZN_LIGHTS,BLDG_LIGHT_SCH,ACTIVESTORAGE_TOP_4 ZN,13.24,0.0,91.225,6.889,N/A,0.000,0.700,0.200,0.100,1.000,LightsWired,0.000,91.225
 Lights Internal Gains Nominal, CLASSROOM_BOT ZN_LIGHTS,BLDG_LIGHT_SCH,CLASSROOM_BOT ZN,29.79,16.0,205.227,6.889,12.827,0.000,0.700,0.200,0.100,1.000,LightsWired,0.000,205.227
 Lights Internal Gains Nominal, CONFROOM_BOT_1 ZN_LIGHTS,BLDG_LIGHT_SCH,CONFROOM_BOT_1 ZN,43.11,23.0,296.950,6.889,12.911,0.000,0.700,0.200,0.100,1.000,LightsWired,0.000,296.950
 Lights Internal Gains Nominal, CONFROOM_BOT_2 ZN_LIGHTS,BLDG_LIGHT_SCH,CONFROOM_BOT_2 ZN,43.11,23.0,296.950,6.889,12.911,0.000,0.700,0.200,0.100,1.000,LightsWired,0.000,296.950
 Lights Internal Gains Nominal, CONFROOM_MID_1 ZN_LIGHTS,BLDG_LIGHT_SCH,CONFROOM_MID_1 ZN,43.11,23.0,296.950,6.889,12.911,0.000,0.700,0.200,0.100,1.000,LightsWired,0.000,296.950
 Lights Internal Gains Nominal, CONFROOM_MID_2 ZN_LIGHTS,BLDG_LIGHT_SCH,CONFROOM_MID_2 ZN,43.11,23.0,296.950,6.889,12.911,0.000,0.700,0.200,0.100,1.000,LightsWired,0.000,296.950
 Lights Internal Gains Nominal, CONFROOM_TOP_1 ZN_LIGHTS,BLDG_LIGHT_SCH,CONFROOM_TOP_1 ZN,43.11,23.0,296.950,6.889,12.911,0.000,0.700,0.200,0.100,1.000,LightsWired,0.000,296.950
 Lights Internal Gains Nominal, CONFROOM_TOP_2 ZN_LIGHTS,BLDG_LIGHT_SCH,CONFROOM_TOP_2 ZN,43.11,23.0,296.950,6.889,12.911,0.000,0.700,0.200,0.100,1.000,LightsWired,0.000,296.950
 Lights Internal Gains Nominal, CORRIDOR_BOT_1 ZN_LIGHTS,BLDG_LIGHT_SCH,CORRIDOR_BOT_1 ZN,74.44,0.0,512.813,6.889,N/A,0.000,0.700,0.200,0.100,1.000,LightsWired,0.000,512.813
 Lights Internal Gains Nominal, CORRIDOR_BOT_2 ZN_LIGHTS,BLDG_LIGHT_SCH,CORRIDOR_BOT_2 ZN,74.44,0.0,512.813,6.889,N/A,0.000,0.700,0.200,0.100,1.000,LightsWired,0.000,512.813
 Lights Internal Gains Nominal, CORRIDOR_MID_1 ZN_LIGHTS,BLDG_LIGHT_SCH,CORRIDOR_MID_1 ZN,74.44,0.0,512.813,6.889,N/A,0.000,0.700,0.200,0.100,1.000,LightsWired,0.000,512.813
 Lights Internal Gains Nominal, CORRIDOR_MID_2 ZN_LIGHTS,BLDG_LIGHT_SCH,CORRIDOR_MID_2 ZN,74.44,0.0,512.813,6.889,N/A,0.000,0.700,0.200,0.100,1.000,LightsWired,0.000,512.813
 Lights Internal Gains Nominal, CORRIDOR_TOP_1 ZN_LIGHTS,BLDG_LIGHT_SCH,CORRIDOR_TOP_1 ZN,74.44,0.0,512.813,6.889,N/A,0.000,0.700,0.200,0.100,1.000,LightsWired,0.000,512.813
 Lights Internal Gains Nominal, CORRIDOR_TOP_2 ZN_LIGHTS,BLDG_LIGHT_SCH,CORRIDOR_TOP_2 ZN,74.44,0.0,512.813,6.889,N/A,0.000,0.700,0.200,0.100,1.000,LightsWired,0.000,512.813
 Lights Internal Gains Nominal, DINING_BOT ZN_LIGHTS,BLDG_LIGHT_SCH,DINING_BOT ZN,22.94,12.0,158.052,6.889,13.171,0.000,0.700,0.200,0.100,1.000,LightsWired,0.000,158.052
 Lights Internal Gains Nominal, DINING_MID ZN_LIGHTS,BLDG_LIGHT_SCH,DINING_MID ZN,22.94,12.0,158.052,6.889,13.171,0.000,0.700,0.200,0.100,1.000,LightsWired,0.000,158.052
 Lights Internal Gains Nominal, DINING_TOP ZN_LIGHTS,BLDG_LIGHT_SCH,DINING_TOP ZN,22.94,12.0,158.052,6.889,13.171,0.000,0.700,0.200,0.100,1.000,LightsWired,0.000,158.052
 Lights Internal Gains Nominal, ENCLOSEDOFFICE_BOT_1 ZN_LIGHTS,BLDG_LIGHT_SCH,ENCLOSEDOFFICE_BOT_1 ZN,31.46,2.0,216.702,6.889,108.351,0.000,0.700,0.200,0.100,1.000,LightsWired,0.000,216.702
 Lights Internal Gains Nominal, ENCLOSEDOFFICE_BOT_2 ZN_LIGHTS,BLDG_LIGHT_SCH,ENCLOSEDOFFICE_BOT_2 ZN,31.44,2.0,216.560,6.889,108.280,0.000,0.700,0.200,0.100,1.000,LightsWired,0.000,216.560
 Lights Internal Gains Nominal, ENCLOSEDOFFICE_BOT_3 ZN_LIGHTS,BLDG_LIGHT_SCH,ENCLOSEDOFFICE_BOT_3 ZN,45.43,2.0,312.957,6.889,156.478,0.000,0.700,0.200,0.100,1.000,LightsWired,0.000,312.957
 Lights Internal Gains Nominal, ENCLOSEDOFFICE_BOT_4 ZN_LIGHTS,BLDG_LIGHT_SCH,ENCLOSEDOFFICE_BOT_4 ZN,45.43,2.0,312.957,6.889,156.478,0.000,0.700,0.200,0.100,1.000,LightsWired,0.000,312.957
 Lights Internal Gains Nominal, ENCLOSEDOFFICE_BOT_5 ZN_LIGHTS,BLDG_LIGHT_SCH,ENCLOSEDOFFICE_BOT_5 ZN,31.45,2.0,216.638,6.889,108.319,0.000,0.700,0.200,0.100,1.000,LightsWired,0.000,216.638
 Lights Internal Gains Nominal, ENCLOSEDOFFICE_BOT_6 ZN_LIGHTS,BLDG_LIGHT_SCH,ENCLOSEDOFFICE_BOT_6 ZN,31.45,2.0,216.638,6.889,108.319,0.000,0.700,0.200,0.100,1.000,LightsWired,0.000,216.638
 Lights Internal Gains Nominal, ENCLOSEDOFFICE_BOT_7 ZN_LIGHTS,BLDG_LIGHT_SCH,ENCLOSEDOFFICE_BOT_7 ZN,31.45,2.0,216.638,6.889,108.319,0.000,0.700,0.200,0.100,1.000,LightsWired,0.000,216.638
 Lights Internal Gains Nominal, ENCLOSEDOFFICE_BOT_8 ZN_LIGHTS,BLDG_LIGHT_SCH,ENCLOSEDOFFICE_BOT_8 ZN,31.44,2.0,216.560,6.889,108.280,0.000,0.700,0.200,0.100,1.000,LightsWired,0.000,216.560
 Lights Internal Gains Nominal, ENCLOSEDOFFICE_BOT_9 ZN_LIGHTS,BLDG_LIGHT_SCH,ENCLOSEDOFFICE_BOT_9 ZN,31.44,2.0,216.560,6.889,108.280,0.000,0.700,0.200,0.100,1.000,LightsWired,0.000,216.560
 Lights Internal Gains Nominal, ENCLOSEDOFFICE_BOT_10 ZN_LIGHTS,BLDG_LIGHT_SCH,ENCLOSEDOFFICE_BOT_10 ZN,31.49,2.0,216.934,6.889,108.467,0.000,0.700,0.200,0.100,1.000,LightsWired,0.000,216.934
 Lights Internal Gains Nominal, ENCLOSEDOFFICE_MID_1 ZN_LIGHTS,BLDG_LIGHT_SCH,ENCLOSEDOFFICE_MID_1 ZN,31.49,2.0,216.934,6.889,108.467,0.000,0.700,0.200,0.100,1.000,LightsWired,0.000,216.934
 Lights Internal Gains Nominal, ENCLOSEDOFFICE_MID_2 ZN_LIGHTS,BLDG_LIGHT_SCH,ENCLOSEDOFFICE_MID_2 ZN,31.49,2.0,216.934,6.889,108.467,0.000,0.700,0.200,0.100,1.000,LightsWired,0.000,216.934
 Lights Internal Gains Nominal, ENCLOSEDOFFICE_MID_3 ZN_LIGHTS,BLDG_LIGHT_SCH,ENCLOSEDOFFICE_MID_3 ZN,42.13,2.0,290.203,6.889,145.102,0.000,0.700,0.200,0.100,1.000,LightsWired,0.000,290.203
 Lights Internal Gains Nominal, ENCLOSEDOFFICE_MID_4 ZN_LIGHTS,BLDG_LIGHT_SCH,ENCLOSEDOFFICE_MID_4 ZN,31.44,2.0,216.560,6.889,108.280,0.000,0.700,0.200,0.100,1.000,LightsWired,0.000,216.560
 Lights Internal Gains Nominal, ENCLOSEDOFFICE_MID_5 ZN_LIGHTS,BLDG_LIGHT_SCH,ENCLOSEDOFFICE_MID_5 ZN,31.44,2.0,216.560,6.889,108.280,0.000,0.700,0.200,0.100,1.000,LightsWired,0.000,216.560
 Lights Internal Gains Nominal, ENCLOSEDOFFICE_MID_6 ZN_LIGHTS,BLDG_LIGHT_SCH,ENCLOSEDOFFICE_MID_6 ZN,31.44,2.0,216.560,6.889,108.280,0.000,0.700,0.200,0.100,1.000,LightsWired,0.000,216.560
 Lights Internal Gains Nominal, ENCLOSEDOFFICE_MID_7 ZN_LIGHTS,BLDG_LIGHT_SCH,ENCLOSEDOFFICE_MID_7 ZN,31.44,2.0,216.560,6.889,108.280,0.000,0.700,0.200,0.100,1.000,LightsWired,0.000,216.560
 Lights Internal Gains Nominal, ENCLOSEDOFFICE_MID_8 ZN_LIGHTS,BLDG_LIGHT_SCH,ENCLOSEDOFFICE_MID_8 ZN,31.44,2.0,216.560,6.889,108.280,0.000,0.700,0.200,0.100,1.000,LightsWired,0.000,216.560
 Lights Internal Gains Nominal, ENCLOSEDOFFICE_MID_9 ZN_LIGHTS,BLDG_LIGHT_SCH,ENCLOSEDOFFICE_MID_9 ZN,31.44,2.0,216.560,6.889,108.280,0.000,0.700,0.200,0.100,1.000,LightsWired,0.000,216.560
 Lights Internal Gains Nominal, ENCLOSEDOFFICE_TOP_1 ZN_LIGHTS,BLDG_LIGHT_SCH,ENCLOSEDOFFICE_TOP_1 ZN,31.46,2.0,216.747,6.889,108.374,0.000,0.700,0.200,0.100,1.000,LightsWired,0.000,216.747
 Lights Internal Gains Nominal, ENCLOSEDOFFICE_TOP_2 ZN_LIGHTS,BLDG_LIGHT_SCH,ENCLOSEDOFFICE_TOP_2 ZN,31.49,2.0,216.934,6.889,108.467,0.000,0.700,0.200,0.100,1.000,LightsWired,0.000,216.934
 Lights Internal Gains Nominal, ENCLOSEDOFFICE_TOP_3 ZN_LIGHTS,BLDG_LIGHT_SCH,ENCLOSEDOFFICE_TOP_3 ZN,42.13,2.0,290.203,6.889,145.102,0.000,0.700,0.200,0.100,1.000,LightsWired,0.000,290.203
 Lights Internal Gains Nominal, ENCLOSEDOFFICE_TOP_4 ZN_LIGHTS,BLDG_LIGHT_SCH,ENCLOSEDOFFICE_TOP_4 ZN,31.46,2.0,216.747,6.889,108.374,0.000,0.700,0.200,0.100,1.000,LightsWired,0.000,216.747
 Lights Internal Gains Nominal, ENCLOSEDOFFICE_TOP_5 ZN_LIGHTS,BLDG_LIGHT_SCH,ENCLOSEDOFFICE_TOP_5 ZN,31.44,2.0,216.560,6.889,108.280,0.000,0.700,0.200,0.100,1.000,LightsWired,0.000,216.560
 Lights Internal Gains Nominal, ENCLOSEDOFFICE_TOP_6 ZN_LIGHTS,BLDG_LIGHT_SCH,ENCLOSEDOFFICE_TOP_6 ZN,31.44,2.0,216.560,6.889,108.280,0.000,0.700,0.200,0.100,1.000,LightsWired,0.000,216.560
 Lights Internal Gains Nominal, ENCLOSEDOFFICE_TOP_7 ZN_LIGHTS,BLDG_LIGHT_SCH,ENCLOSEDOFFICE_TOP_7 ZN,31.44,2.0,216.560,6.889,108.280,0.000,0.700,0.200,0.100,1.000,LightsWired,0.000,216.560
 Lights Internal Gains Nominal, ENCLOSEDOFFICE_TOP_8 ZN_LIGHTS,BLDG_LIGHT_SCH,ENCLOSEDOFFICE_TOP_8 ZN,31.44,2.0,216.560,6.889,108.280,0.000,0.700,0.200,0.100,1.000,LightsWired,0.000,216.560
 Lights Internal Gains Nominal, ENCLOSEDOFFICE_TOP_9 ZN_LIGHTS,BLDG_LIGHT_SCH,ENCLOSEDOFFICE_TOP_9 ZN,31.44,2.0,216.560,6.889,108.280,0.000,0.700,0.200,0.100,1.000,LightsWired,0.000,216.560
 Lights Internal Gains Nominal, LOBBY_BOT ZN_LIGHTS,BLDG_LIGHT_SCH,LOBBY_BOT ZN,61.43,7.0,423.167,6.889,60.452,0.000,0.700,0.200,0.100,1.000,LightsWired,0.000,423.167
 Lights Internal Gains Nominal, LOBBY_MID ZN_LIGHTS,BLDG_LIGHT_SCH,LOBBY_MID ZN,61.43,7.0,423.167,6.889,60.452,0.000,0.700,0.200,0.100,1.000,LightsWired,0.000,423.167
 Lights Internal Gains Nominal, LOBBY_TOP ZN_LIGHTS,BLDG_LIGHT_SCH,LOBBY_TOP ZN,61.43,7.0,423.167,6.889,60.452,0.000,0.700,0.200,0.100,1.000,LightsWired,0.000,423.167
 Lights Internal Gains Nominal, LOUNGE_BOT ZN_LIGHTS,BLDG_LIGHT_SCH,LOUNGE_BOT ZN,89.55,29.0,616.917,6.889,21.273,0.000,0.700,0.200,0.100,1.000,LightsWired,0.000,616.917
 Lights Internal Gains Nominal, MECHANICAL_BOT ZN_LIGHTS,BLDG_LIGHT_SCH,MECHANICAL_BOT ZN,49.81,0.0,343.124,6.889,N/A,0.000,0.700,0.200,0.100,1.000,LightsWired,0.000,343.124
 Lights Internal Gains Nominal, MECHANICAL_MID ZN_LIGHTS,BLDG_LIGHT_SCH,MECHANICAL_MID ZN,49.81,0.0,343.124,6.889,N/A,0.000,0.700,0.200,0.100,1.000,LightsWired,0.000,343.124
 Lights Internal Gains Nominal, MECHANICAL_TOP ZN_LIGHTS,BLDG_LIGHT_SCH,MECHANICAL_TOP ZN,49.81,0.0,343.124,6.889,N/A,0.000,0.700,0.200,0.100,1.000,LightsWired,0.000,343.124
 Lights Internal Gains Nominal, OPENOFFICE_BOT_1 ZN_LIGHTS,BLDG_LIGHT_SCH,OPENOFFICE_BOT_1 ZN,194.10,10.0,1337.163,6.889,133.716,0.000,0.700,0.200,0.100,1.000,LightsWired,0.000,1337.163
 Lights Internal Gains Nominal, OPENOFFICE_BOT_2 ZN_LIGHTS,BLDG_LIGHT_SCH,OPENOFFICE_BOT_2 ZN,211.92,11.0,1459.925,6.889,132.720,0.000,0.700,0.200,0.100,1.000,LightsWired,0.000,1459.925
 Lights Internal Gains Nominal, OPENOFFICE_BOT_3 ZN_LIGHTS,BLDG_LIGHT_SCH,OPENOFFICE_BOT_3 ZN,188.65,10.0,1299.579,6.889,129.958,0.000,0.700,0.200,0.100,1.000,LightsWired,0.000,1299.579
 Lights Internal Gains Nominal, OPENOFFICE_MID_1 ZN_LIGHTS,BLDG_LIGHT_SCH,OPENOFFICE_MID_1 ZN,194.10,10.0,1337.163,6.889,133.716,0.000,0.700,0.200,0.100,1.000,LightsWired,0.000,1337.163
 Lights Internal Gains Nominal, OPENOFFICE_MID_2 ZN_LIGHTS,BLDG_LIGHT_SCH,OPENOFFICE_MID_2 ZN,211.92,11.0,1459.925,6.889,132.720,0.000,0.700,0.200,0.100,1.000,LightsWired,0.000,1459.925
 Lights Internal Gains Nominal, OPENOFFICE_MID_3 ZN_LIGHTS,BLDG_LIGHT_SCH,OPENOFFICE_MID_3 ZN,176.31,9.0,1214.603,6.889,134.956,0.000,0.700,0.200,0.100,1.000,LightsWired,0.000,1214.603
 Lights Internal Gains Nominal, OPENOFFICE_MID_4 ZN_LIGHTS,BLDG_LIGHT_SCH,OPENOFFICE_MID_4 ZN,180.41,10.0,1242.830,6.889,124.283,0.000,0.700,0.200,0.100,1.000,LightsWired,0.000,1242.830
 Lights Internal Gains Nominal, OPENOFFICE_TOP_1 ZN_LIGHTS,BLDG_LIGHT_SCH,OPENOFFICE_TOP_1 ZN,194.10,10.0,1337.163,6.889,133.716,0.000,0.700,0.200,0.100,1.000,LightsWired,0.000,1337.163
 Lights Internal Gains Nominal, OPENOFFICE_TOP_2 ZN_LIGHTS,BLDG_LIGHT_SCH,OPENOFFICE_TOP_2 ZN,211.92,11.0,1459.925,6.889,132.720,0.000,0.700,0.200,0.100,1.000,LightsWired,0.000,1459.925
 Lights Internal Gains Nominal, OPENOFFICE_TOP_3 ZN_LIGHTS,BLDG_LIGHT_SCH,OPENOFFICE_TOP_3 ZN,176.31,9.0,1214.603,6.889,134.956,0.000,0.700,0.200,0.100,1.000,LightsWired,0.000,1214.603
 Lights Internal Gains Nominal, OPENOFFICE_TOP_4 ZN_LIGHTS,BLDG_LIGHT_SCH,OPENOFFICE_TOP_4 ZN,180.41,10.0,1242.830,6.889,124.283,0.000,0.700,0.200,0.100,1.000,LightsWired,0.000,1242.830
 Lights Internal Gains Nominal, RESTROOM_BOT ZN_LIGHTS,BLDG_LIGHT_SCH,RESTROOM_BOT ZN,59.71,0.0,411.308,6.889,N/A,0.000,0.700,0.200,0.100,1.000,LightsWired,0.000,411.308
 Lights Internal Gains Nominal, RESTROOM_MID ZN_LIGHTS,BLDG_LIGHT_SCH,RESTROOM_MID ZN,59.71,0.0,411.308,6.889,N/A,0.000,0.700,0.200,0.100,1.000,LightsWired,0.000,411.308
 Lights Internal Gains Nominal, RESTROOM_TOP ZN_LIGHTS,BLDG_LIGHT_SCH,RESTROOM_TOP ZN,59.71,0.0,411.308,6.889,N/A,0.000,0.700,0.200,0.100,1.000,LightsWired,0.000,411.308
 Lights Internal Gains Nominal, STAIR_BOT_1 ZN_LIGHTS,BLDG_LIGHT_SCH,STAIR_BOT_1 ZN,30.71,0.0,211.530,6.889,N/A,0.000,0.700,0.200,0.100,1.000,LightsWired,0.000,211.530
 Lights Internal Gains Nominal, STAIR_BOT_2 ZN_LIGHTS,BLDG_LIGHT_SCH,STAIR_BOT_2 ZN,30.71,0.0,211.530,6.889,N/A,0.000,0.700,0.200,0.100,1.000,LightsWired,0.000,211.530
 Lights Internal Gains Nominal, STAIR_MID_1 ZN_LIGHTS,BLDG_LIGHT_SCH,STAIR_MID_1 ZN,30.71,0.0,211.530,6.889,N/A,0.000,0.700,0.200,0.100,1.000,LightsWired,0.000,211.530
 Lights Internal Gains Nominal, STAIR_MID_2 ZN_LIGHTS,BLDG_LIGHT_SCH,STAIR_MID_2 ZN,30.71,0.0,211.530,6.889,N/A,0.000,0.700,0.200,0.100,1.000,LightsWired,0.000,211.530
 Lights Internal Gains Nominal, STAIR_TOP_1 ZN_LIGHTS,BLDG_LIGHT_SCH,STAIR_TOP_1 ZN,30.71,0.0,211.530,6.889,N/A,0.000,0.700,0.200,0.100,1.000,LightsWired,0.000,211.530
 Lights Internal Gains Nominal, STAIR_TOP_2 ZN_LIGHTS,BLDG_LIGHT_SCH,STAIR_TOP_2 ZN,30.71,0.0,211.530,6.889,N/A,0.000,0.700,0.200,0.100,1.000,LightsWired,0.000,211.530
! <ElectricEquipment Internal Gains Nominal>,Name,Schedule Name,Zone Name,Zone Floor Area {m2},# Zone Occupants,Equipment Level {W},Equipment/Floor Area {W/m2},Equipment per person {W/person},Fraction Latent,Fraction Radiant,Fraction Lost,Fraction Convected,End-Use SubCategory,Nominal Minimum Equipment Level {W},Nominal Maximum Equipment Level {W}
 ElectricEquipment Internal Gains Nominal, CORE_BOTTOM_ELEVATORS_EQUIP,BLDG_ELEVATORS,LOBBY_BOT ZN,61.43,7.0,32109.890,522.730,4587.127,0.000,0.500,0.000,0.500,ElevatorLift,0.000,22155.824
 ElectricEquipment Internal Gains Nominal, ELEVATORS_LIGHTS_FAN,ELEV_LIGHT_FAN_SCH_ADD_DF,LOBBY_BOT ZN,61.43,7.0,125.000,2.035,17.857,0.000,0.500,0.000,0.500,ElevatorLightsFan,0.000,86.250
 ElectricEquipment Internal Gains Nominal, CLASSROOM_BOT ZN MEDIUMOFFICE - CLASSROOM ELEC EQUIP,BLDG_EQUIP_SCH,CLASSROOM_BOT ZN,29.79,16.0,297.900,10.000,18.619,0.000,0.500,0.000,0.500,General,0.000,297.900
 ElectricEquipment Internal Gains Nominal, ENCLOSEDOFFICE_BOT_7 ZN MEDIUMOFFICE - CLOSEDOFFICE ELEC EQUIP,BLDG_EQUIP_SCH,ENCLOSEDOFFICE_BOT_7 ZN,31.45,2.0,294.492,9.365,147.246,0.000,0.500,0.000,0.500,General,0.000,294.492
 ElectricEquipment Internal Gains Nominal, ENCLOSEDOFFICE_BOT_10 ZN MEDIUMOFFICE - CLOSEDOFFICE ELEC EQUIP,BLDG_EQUIP_SCH,ENCLOSEDOFFICE_BOT_10 ZN,31.49,2.0,294.895,9.365,147.448,0.000,0.500,0.000,0.500,General,0.000,294.895
 ElectricEquipment Internal Gains Nominal, ENCLOSEDOFFICE_BOT_3 ZN MEDIUMOFFICE - CLOSEDOFFICE ELEC EQUIP,BLDG_EQUIP_SCH,ENCLOSEDOFFICE_BOT_3 ZN,45.43,2.0,425.425,9.365,212.713,0.000,0.500,0.000,0.500,General,0.000,425.425
 ElectricEquipment Internal Gains Nominal, ENCLOSEDOFFICE_BOT_4 ZN MEDIUMOFFICE - CLOSEDOFFICE ELEC EQUIP,BLDG_EQUIP_SCH,ENCLOSEDOFFICE_BOT_4 ZN,45.43,2.0,425.425,9.365,212.713,0.000,0.500,0.000,0.500,General,0.000,425.425
 ElectricEquipment Internal Gains Nominal, ENCLOSEDOFFICE_MID_1 ZN MEDIUMOFFICE - CLOSEDOFFICE ELEC EQUIP,BLDG_EQUIP_SCH,ENCLOSEDOFFICE_MID_1 ZN,31.49,2.0,294.895,9.365,147.448,0.000,0.500,0.000,0.500,General,0.000,294.895
 ElectricEquipment Internal Gains Nominal, ENCLOSEDOFFICE_MID_2 ZN MEDIUMOFFICE - CLOSEDOFFICE ELEC EQUIP,BLDG_EQUIP_SCH,ENCLOSEDOFFICE_MID_2 ZN,31.49,2.0,294.895,9.365,147.448,0.000,0.500,0.000,0.500,General,0.000,294.895
 ElectricEquipment Internal Gains Nominal, ENCLOSEDOFFICE_MID_3 ZN MEDIUMOFFICE - CLOSEDOFFICE ELEC EQUIP,BLDG_EQUIP_SCH,ENCLOSEDOFFICE_MID_3 ZN,42.13,2.0,394.495,9.365,197.248,0.000,0.500,0.000,0.500,General,0.000,394.495
 ElectricEquipment Internal Gains Nominal, ENCLOSEDOFFICE_TOP_1 ZN MEDIUMOFFICE - CLOSEDOFFICE ELEC EQUIP,BLDG_EQUIP_SCH,ENCLOSEDOFFICE_TOP_1 ZN,31.46,2.0,294.641,9.365,147.320,0.000,0.500,0.000,0.500,General,0.000,294.641
 ElectricEquipment Internal Gains Nominal, ENCLOSEDOFFICE_TOP_2 ZN MEDIUMOFFICE - CLOSEDOFFICE ELEC EQUIP,BLDG_EQUIP_SCH,ENCLOSEDOFFICE_TOP_2 ZN,31.49,2.0,294.895,9.365,147.448,0.000,0.500,0.000,0.500,General,0.000,294.895
 ElectricEquipment Internal Gains Nominal, ENCLOSEDOFFICE_TOP_3 ZN MEDIUMOFFICE - CLOSEDOFFICE ELEC EQUIP,BLDG_EQUIP_SCH,ENCLOSEDOFFICE_TOP_3 ZN,42.13,2.0,394.495,9.365,197.248,0.000,0.500,0.000,0.500,General,0.000,394.495
 ElectricEquipment Internal Gains Nominal, ENCLOSEDOFFICE_BOT_5 ZN MEDIUMOFFICE - CLOSEDOFFICE ELEC EQUIP,BLDG_EQUIP_SCH,ENCLOSEDOFFICE_BOT_5 ZN,31.45,2.0,294.492,9.365,147.246,0.000,0.500,0.000,0.500,General,0.000,294.492
 ElectricEquipment Internal Gains Nominal, ENCLOSEDOFFICE_BOT_1 ZN MEDIUMOFFICE - CLOSEDOFFICE ELEC EQUIP,BLDG_EQUIP_SCH,ENCLOSEDOFFICE_BOT_1 ZN,31.46,2.0,294.579,9.365,147.289,0.000,0.500,0.000,0.500,General,0.000,294.579
 ElectricEquipment Internal Gains Nominal, ENCLOSEDOFFICE_BOT_9 ZN MEDIUMOFFICE - CLOSEDOFFICE ELEC EQUIP,BLDG_EQUIP_SCH,ENCLOSEDOFFICE_BOT_9 ZN,31.44,2.0,294.386,9.365,147.193,0.000,0.500,0.000,0.500,General,0.000,294.386
 ElectricEquipment Internal Gains Nominal, ENCLOSEDOFFICE_BOT_8 ZN MEDIUMOFFICE - CLOSEDOFFICE ELEC EQUIP,BLDG_EQUIP_SCH,ENCLOSEDOFFICE_BOT_8 ZN,31.44,2.0,294.386,9.365,147.193,0.000,0.500,0.000,0.500,General,0.000,294.386
 ElectricEquipment Internal Gains Nominal, ENCLOSEDOFFICE_BOT_2 ZN MEDIUMOFFICE - CLOSEDOFFICE ELEC EQUIP,BLDG_EQUIP_SCH,ENCLOSEDOFFICE_BOT_2 ZN,31.44,2.0,294.386,9.365,147.193,0.000,0.500,0.000,0.500,General,0.000,294.386
 ElectricEquipment Internal Gains Nominal, ENCLOSEDOFFICE_MID_4 ZN MEDIUMOFFICE - CLOSEDOFFICE ELEC EQUIP,BLDG_EQUIP_SCH,ENCLOSEDOFFICE_MID_4 ZN,31.44,2.0,294.386,9.365,147.193,0.000,0.500,0.000,0.500,General,0.000,294.386
 ElectricEquipment Internal Gains Nominal, ENCLOSEDOFFICE_MID_5 ZN MEDIUMOFFICE - CLOSEDOFFICE ELEC EQUIP,BLDG_EQUIP_SCH,ENCLOSEDOFFICE_MID_5 ZN,31.44,2.0,294.386,9.365,147.193,0.000,0.500,0.000,0.500,General,0.000,294.386
 ElectricEquipment Internal Gains Nominal, ENCLOSEDOFFICE_MID_6 ZN MEDIUMOFFICE - CLOSEDOFFICE ELEC EQUIP,BLDG_EQUIP_SCH,ENCLOSEDOFFICE_MID_6 ZN,31.44,2.0,294.386,9.365,147.193,0.000,0.500,0.000,0.500,General,0.000,294.386
 ElectricEquipment Internal Gains Nominal, ENCLOSEDOFFICE_MID_7 ZN MEDIUMOFFICE - CLOSEDOFFICE ELEC EQUIP,BLDG_EQUIP_SCH,ENCLOSEDOFFICE_MID_7 ZN,31.44,2.0,294.386,9.365,147.193,0.000,0.500,0.000,0.500,General,0.000,294.386
 ElectricEquipment Internal Gains Nominal, ENCLOSEDOFFICE_MID_8 ZN MEDIUMOFFICE - CLOSEDOFFICE ELEC EQUIP,BLDG_EQUIP_SCH,ENCLOSEDOFFICE_MID_8 ZN,31.44,2.0,294.386,9.365,147.193,0.000,0.500,0.000,0.500,General,0.000,294.386
 ElectricEquipment Internal Gains Nominal, ENCLOSEDOFFICE_MID_9 ZN MEDIUMOFFICE - CLOSEDOFFICE ELEC EQUIP,BLDG_EQUIP_SCH,ENCLOSEDOFFICE_MID_9 ZN,31.44,2.0,294.386,9.365,147.193,0.000,0.500,0.000,0.500,General,0.000,294.386
 ElectricEquipment Internal Gains Nominal, ENCLOSEDOFFICE_TOP_4 ZN MEDIUMOFFICE - CLOSEDOFFICE ELEC EQUIP,BLDG_EQUIP_SCH,ENCLOSEDOFFICE_TOP_4 ZN,31.46,2.0,294.641,9.365,147.320,0.000,0.500,0.000,0.500,General,0.000,294.641
 ElectricEquipment Internal Gains Nominal, ENCLOSEDOFFICE_TOP_5 ZN MEDIUMOFFICE - CLOSEDOFFICE ELEC EQUIP,BLDG_EQUIP_SCH,ENCLOSEDOFFICE_TOP_5 ZN,31.44,2.0,294.386,9.365,147.193,0.000,0.500,0.000,0.500,General,0.000,294.386
 ElectricEquipment Internal Gains Nominal, ENCLOSEDOFFICE_TOP_6 ZN MEDIUMOFFICE - CLOSEDOFFICE ELEC EQUIP,BLDG_EQUIP_SCH,ENCLOSEDOFFICE_TOP_6 ZN,31.44,2.0,294.386,9.365,147.193,0.000,0.500,0.000,0.500,General,0.000,294.386
 ElectricEquipment Internal Gains Nominal, ENCLOSEDOFFICE_TOP_7 ZN MEDIUMOFFICE - CLOSEDOFFICE ELEC EQUIP,BLDG_EQUIP_SCH,ENCLOSEDOFFICE_TOP_7 ZN,31.44,2.0,294.386,9.365,147.193,0.000,0.500,0.000,0.500,General,0.000,294.386
 ElectricEquipment Internal Gains Nominal, ENCLOSEDOFFICE_TOP_8 ZN MEDIUMOFFICE - CLOSEDOFFICE ELEC EQUIP,BLDG_EQUIP_SCH,ENCLOSEDOFFICE_TOP_8 ZN,31.44,2.0,294.386,9.365,147.193,0.000,0.500,0.000,0.500,General,0.000,294.386
 ElectricEquipment Internal Gains Nominal, ENCLOSEDOFFICE_TOP_9 ZN MEDIUMOFFICE - CLOSEDOFFICE ELEC EQUIP,BLDG_EQUIP_SCH,ENCLOSEDOFFICE_TOP_9 ZN,31.44,2.0,294.386,9.365,147.193,0.000,0.500,0.000,0.500,General,0.000,294.386
 ElectricEquipment Internal Gains Nominal, CONFROOM_BOT_1 ZN MEDIUMOFFICE - CONFERENCE ELEC EQUIP,BLDG_EQUIP_SCH,CONFROOM_BOT_1 ZN,43.11,23.0,463.984,10.764,20.173,0.000,0.500,0.000,0.500,General,0.000,463.984
 ElectricEquipment Internal Gains Nominal, CONFROOM_BOT_2 ZN MEDIUMOFFICE - CONFERENCE ELEC EQUIP,BLDG_EQUIP_SCH,CONFROOM_BOT_2 ZN,43.11,23.0,463.984,10.764,20.173,0.000,0.500,0.000,0.500,General,0.000,463.984
 ElectricEquipment Internal Gains Nominal, CONFROOM_MID_1 ZN MEDIUMOFFICE - CONFERENCE ELEC EQUIP,BLDG_EQUIP_SCH,CONFROOM_MID_1 ZN,43.11,23.0,463.984,10.764,20.173,0.000,0.500,0.000,0.500,General,0.000,463.984
 ElectricEquipment Internal Gains Nominal, CONFROOM_MID_2 ZN MEDIUMOFFICE - CONFERENCE ELEC EQUIP,BLDG_EQUIP_SCH,CONFROOM_MID_2 ZN,43.11,23.0,463.984,10.764,20.173,0.000,0.500,0.000,0.500,General,0.000,463.984
 ElectricEquipment Internal Gains Nominal, CONFROOM_TOP_1 ZN MEDIUMOFFICE - CONFERENCE ELEC EQUIP,BLDG_EQUIP_SCH,CONFROOM_TOP_1 ZN,43.11,23.0,463.984,10.764,20.173,0.000,0.500,0.000,0.500,General,0.000,463.984
 ElectricEquipment Internal Gains Nominal, CONFROOM_TOP_2 ZN MEDIUMOFFICE - CONFERENCE ELEC EQUIP,BLDG_EQUIP_SCH,CONFROOM_TOP_2 ZN,43.11,23.0,463.984,10.764,20.173,0.000,0.500,0.000,0.500,General,0.000,463.984
 ElectricEquipment Internal Gains Nominal, CORRIDOR_BOT_1 ZN MEDIUMOFFICE - CORRIDOR ELEC EQUIP,BLDG_EQUIP_SCH,CORRIDOR_BOT_1 ZN,74.44,0.0,232.369,3.122,N/A,0.000,0.500,0.000,0.500,General,0.000,232.369
 ElectricEquipment Internal Gains Nominal, CORRIDOR_BOT_2 ZN MEDIUMOFFICE - CORRIDOR ELEC EQUIP,BLDG_EQUIP_SCH,CORRIDOR_BOT_2 ZN,74.44,0.0,232.369,3.122,N/A,0.000,0.500,0.000,0.500,General,0.000,232.369
 ElectricEquipment Internal Gains Nominal, CORRIDOR_MID_1 ZN MEDIUMOFFICE - CORRIDOR ELEC EQUIP,BLDG_EQUIP_SCH,CORRIDOR_MID_1 ZN,74.44,0.0,232.369,3.122,N/A,0.000,0.500,0.000,0.500,General,0.000,232.369
[...]
 Sky Daylight Factors,Clear Turbid Sky,01/01,OPENOFFICE_BOT_3 ZN,OPENOFFICE_BOT_3_ZN_WALL_NORTH_WINDOW,OPENOFFICE_BOT_3 DAYLT SENSOR 1,3.6721E-002
 Sky Daylight Factors,Clear Turbid Sky,01/01,OPENOFFICE_BOT_3 ZN,OPENOFFICE_BOT_3_ZN_WALL_NORTH_WINDOW,OPENOFFICE_BOT_3 DAYLT SENSOR 2,2.2909E-002
 Sky Daylight Factors,Intermediate Sky,01/01,OPENOFFICE_BOT_3 ZN,OPENOFFICE_BOT_3_ZN_WALL_NORTH_WINDOW,OPENOFFICE_BOT_3 DAYLT SENSOR 1,3.4391E-002
 Sky Daylight Factors,Intermediate Sky,01/01,OPENOFFICE_BOT_3 ZN,OPENOFFICE_BOT_3_ZN_WALL_NORTH_WINDOW,OPENOFFICE_BOT_3 DAYLT SENSOR 2,1.6751E-002
 Sky Daylight Factors,Overcast Sky,01/01,OPENOFFICE_BOT_3 ZN,OPENOFFICE_BOT_3_ZN_WALL_NORTH_WINDOW,OPENOFFICE_BOT_3 DAYLT SENSOR 1,5.1863E-002
 Sky Daylight Factors,Overcast Sky,01/01,OPENOFFICE_BOT_3 ZN,OPENOFFICE_BOT_3_ZN_WALL_NORTH_WINDOW,OPENOFFICE_BOT_3 DAYLT SENSOR 2,2.2335E-002
 Sky Daylight Factors,Clear Sky,01/01,OPENOFFICE_MID_3 ZN,OPENOFFICE_MID_3_ZN_WALL_NORTH_WINDOW,OPENOFFICE_MID_3 DAYLT SENSOR 1,4.7103E-002
 Sky Daylight Factors,Clear Sky,01/01,OPENOFFICE_MID_3 ZN,OPENOFFICE_MID_3_ZN_WALL_NORTH_WINDOW,OPENOFFICE_MID_3 DAYLT SENSOR 2,2.9430E-002
 Sky Daylight Factors,Clear Turbid Sky,01/01,OPENOFFICE_MID_3 ZN,OPENOFFICE_MID_3_ZN_WALL_NORTH_WINDOW,OPENOFFICE_MID_3 DAYLT SENSOR 1,3.6710E-002
 Sky Daylight Factors,Clear Turbid Sky,01/01,OPENOFFICE_MID_3 ZN,OPENOFFICE_MID_3_ZN_WALL_NORTH_WINDOW,OPENOFFICE_MID_3 DAYLT SENSOR 2,2.2893E-002
 Sky Daylight Factors,Intermediate Sky,01/01,OPENOFFICE_MID_3 ZN,OPENOFFICE_MID_3_ZN_WALL_NORTH_WINDOW,OPENOFFICE_MID_3 DAYLT SENSOR 1,3.4378E-002
 Sky Daylight Factors,Intermediate Sky,01/01,OPENOFFICE_MID_3 ZN,OPENOFFICE_MID_3_ZN_WALL_NORTH_WINDOW,OPENOFFICE_MID_3 DAYLT SENSOR 2,1.6735E-002
 Sky Daylight Factors,Overcast Sky,01/01,OPENOFFICE_MID_3 ZN,OPENOFFICE_MID_3_ZN_WALL_NORTH_WINDOW,OPENOFFICE_MID_3 DAYLT SENSOR 1,5.1856E-002
 Sky Daylight Factors,Overcast Sky,01/01,OPENOFFICE_MID_3 ZN,OPENOFFICE_MID_3_ZN_WALL_NORTH_WINDOW,OPENOFFICE_MID_3 DAYLT SENSOR 2,2.2321E-002
 Sky Daylight Factors,Clear Sky,01/01,OPENOFFICE_MID_4 ZN,OPENOFFICE_MID_4_ZN_WALL_SOUTH_WINDOW,OPENOFFICE_MID_4 DAYLT SENSOR 1,0.1684
 Sky Daylight Factors,Clear Sky,01/01,OPENOFFICE_MID_4 ZN,OPENOFFICE_MID_4_ZN_WALL_SOUTH_WINDOW,OPENOFFICE_MID_4 DAYLT SENSOR 2,9.7579E-002
 Sky Daylight Factors,Clear Turbid Sky,01/01,OPENOFFICE_MID_4 ZN,OPENOFFICE_MID_4_ZN_WALL_SOUTH_WINDOW,OPENOFFICE_MID_4 DAYLT SENSOR 1,0.1897
 Sky Daylight Factors,Clear Turbid Sky,01/01,OPENOFFICE_MID_4 ZN,OPENOFFICE_MID_4_ZN_WALL_SOUTH_WINDOW,OPENOFFICE_MID_4 DAYLT SENSOR 2,0.1098
 Sky Daylight Factors,Intermediate Sky,01/01,OPENOFFICE_MID_4 ZN,OPENOFFICE_MID_4_ZN_WALL_SOUTH_WINDOW,OPENOFFICE_MID_4 DAYLT SENSOR 1,0.1222
 Sky Daylight Factors,Intermediate Sky,01/01,OPENOFFICE_MID_4 ZN,OPENOFFICE_MID_4_ZN_WALL_SOUTH_WINDOW,OPENOFFICE_MID_4 DAYLT SENSOR 2,5.6713E-002
 Sky Daylight Factors,Overcast Sky,01/01,OPENOFFICE_MID_4 ZN,OPENOFFICE_MID_4_ZN_WALL_SOUTH_WINDOW,OPENOFFICE_MID_4 DAYLT SENSOR 1,5.1857E-002
 Sky Daylight Factors,Overcast Sky,01/01,OPENOFFICE_MID_4 ZN,OPENOFFICE_MID_4_ZN_WALL_SOUTH_WINDOW,OPENOFFICE_MID_4 DAYLT SENSOR 2,2.2324E-002
 Sky Daylight Factors,Clear Sky,01/01,OPENOFFICE_TOP_3 ZN,OPENOFFICE_TOP_3_ZN_WALL_NORTH_WINDOW,OPENOFFICE_TOP_3 DAYLT SENSOR 1,4.7103E-002
 Sky Daylight Factors,Clear Sky,01/01,OPENOFFICE_TOP_3 ZN,OPENOFFICE_TOP_3_ZN_WALL_NORTH_WINDOW,OPENOFFICE_TOP_3 DAYLT SENSOR 2,2.9430E-002
 Sky Daylight Factors,Clear Turbid Sky,01/01,OPENOFFICE_TOP_3 ZN,OPENOFFICE_TOP_3_ZN_WALL_NORTH_WINDOW,OPENOFFICE_TOP_3 DAYLT SENSOR 1,3.6710E-002
 Sky Daylight Factors,Clear Turbid Sky,01/01,OPENOFFICE_TOP_3 ZN,OPENOFFICE_TOP_3_ZN_WALL_NORTH_WINDOW,OPENOFFICE_TOP_3 DAYLT SENSOR 2,2.2893E-002
 Sky Daylight Factors,Intermediate Sky,01/01,OPENOFFICE_TOP_3 ZN,OPENOFFICE_TOP_3_ZN_WALL_NORTH_WINDOW,OPENOFFICE_TOP_3 DAYLT SENSOR 1,3.4378E-002
 Sky Daylight Factors,Intermediate Sky,01/01,OPENOFFICE_TOP_3 ZN,OPENOFFICE_TOP_3_ZN_WALL_NORTH_WINDOW,OPENOFFICE_TOP_3 DAYLT SENSOR 2,1.6735E-002
 Sky Daylight Factors,Overcast Sky,01/01,OPENOFFICE_TOP_3 ZN,OPENOFFICE_TOP_3_ZN_WALL_NORTH_WINDOW,OPENOFFICE_TOP_3 DAYLT SENSOR 1,5.1856E-002
 Sky Daylight Factors,Overcast Sky,01/01,OPENOFFICE_TOP_3 ZN,OPENOFFICE_TOP_3_ZN_WALL_NORTH_WINDOW,OPENOFFICE_TOP_3 DAYLT SENSOR 2,2.2321E-002
 Sky Daylight Factors,Clear Sky,01/01,OPENOFFICE_TOP_4 ZN,OPENOFFICE_TOP_4_ZN_WALL_SOUTH_WINDOW,OPENOFFICE_TOP_4 DAYLT SENSOR 1,0.1684
 Sky Daylight Factors,Clear Sky,01/01,OPENOFFICE_TOP_4 ZN,OPENOFFICE_TOP_4_ZN_WALL_SOUTH_WINDOW,OPENOFFICE_TOP_4 DAYLT SENSOR 2,9.7579E-002
 Sky Daylight Factors,Clear Turbid Sky,01/01,OPENOFFICE_TOP_4 ZN,OPENOFFICE_TOP_4_ZN_WALL_SOUTH_WINDOW,OPENOFFICE_TOP_4 DAYLT SENSOR 1,0.1897
 Sky Daylight Factors,Clear Turbid Sky,01/01,OPENOFFICE_TOP_4 ZN,OPENOFFICE_TOP_4_ZN_WALL_SOUTH_WINDOW,OPENOFFICE_TOP_4 DAYLT SENSOR 2,0.1098
 Sky Daylight Factors,Intermediate Sky,01/01,OPENOFFICE_TOP_4 ZN,OPENOFFICE_TOP_4_ZN_WALL_SOUTH_WINDOW,OPENOFFICE_TOP_4 DAYLT SENSOR 1,0.1222
 Sky Daylight Factors,Intermediate Sky,01/01,OPENOFFICE_TOP_4 ZN,OPENOFFICE_TOP_4_ZN_WALL_SOUTH_WINDOW,OPENOFFICE_TOP_4 DAYLT SENSOR 2,5.6713E-002
 Sky Daylight Factors,Overcast Sky,01/01,OPENOFFICE_TOP_4 ZN,OPENOFFICE_TOP_4_ZN_WALL_SOUTH_WINDOW,OPENOFFICE_TOP_4 DAYLT SENSOR 1,5.1857E-002
 Sky Daylight Factors,Overcast Sky,01/01,OPENOFFICE_TOP_4 ZN,OPENOFFICE_TOP_4_ZN_WALL_SOUTH_WINDOW,OPENOFFICE_TOP_4 DAYLT SENSOR 2,2.2324E-002
Environment:WarmupDays, 25
! <Tabular Report>,Style,Unit Conversion
Tabular Report,Commaandhtml,commaandhtml
! <Warmup Convergence Information>,Zone Name,Environment Type/Name,Average Warmup Temperature Difference {deltaC},Std Dev Warmup Temperature Difference {deltaC},Max Temperature Pass/Fail Convergence,Min Temperature Pass/Fail Convergence,Average Warmup Load Difference {W},Std Dev Warmup Load Difference {W},Heating Load Pass/Fail Convergence,Cooling Load Pass/Fail Convergence
 Warmup Convergence Information,ACTIVESTORAGE_BOT_1 ZN,RunPeriod: SPAWN-RUNPERIOD,2.7717394422E-003,1.9330151584E-003,Pass,Pass,0.0000000000,0.0000000000,Pass,Pass
 Warmup Convergence Information,ACTIVESTORAGE_BOT_2 ZN,RunPeriod: SPAWN-RUNPERIOD,2.7580106872E-003,1.9165248618E-003,Pass,Pass,0.0000000000,0.0000000000,Pass,Pass
 Warmup Convergence Information,ACTIVESTORAGE_BOT_3 ZN,RunPeriod: SPAWN-RUNPERIOD,2.1880019313E-003,1.2670468131E-003,Pass,Pass,0.0000000000,0.0000000000,Pass,Pass
 Warmup Convergence Information,ACTIVESTORAGE_BOT_4 ZN,RunPeriod: SPAWN-RUNPERIOD,2.1789748727E-003,1.2075096723E-003,Pass,Pass,0.0000000000,0.0000000000,Pass,Pass
 Warmup Convergence Information,ACTIVESTORAGE_MID_1 ZN,RunPeriod: SPAWN-RUNPERIOD,5.4204586154E-003,3.5784136550E-003,Pass,Pass,0.0000000000,0.0000000000,Pass,Pass
 Warmup Convergence Information,ACTIVESTORAGE_MID_2 ZN,RunPeriod: SPAWN-RUNPERIOD,5.3950891870E-003,3.5584825261E-003,Pass,Pass,0.0000000000,0.0000000000,Pass,Pass
 Warmup Convergence Information,ACTIVESTORAGE_MID_3 ZN,RunPeriod: SPAWN-RUNPERIOD,4.8758250429E-003,3.0274310078E-003,Pass,Pass,0.0000000000,0.0000000000,Pass,Pass
 Warmup Convergence Information,ACTIVESTORAGE_MID_4 ZN,RunPeriod: SPAWN-RUNPERIOD,4.7266145888E-003,2.9199387193E-003,Pass,Pass,0.0000000000,0.0000000000,Pass,Pass
 Warmup Convergence Information,ACTIVESTORAGE_TOP_1 ZN,RunPeriod: SPAWN-RUNPERIOD,0.0000000000,0.0000000000,Pass,Pass,0.0000000000,0.0000000000,Pass,Pass
 Warmup Convergence Information,ACTIVESTORAGE_TOP_2 ZN,RunPeriod: SPAWN-RUNPERIOD,0.0000000000,0.0000000000,Pass,Pass,0.0000000000,0.0000000000,Pass,Pass
 Warmup Convergence Information,ACTIVESTORAGE_TOP_3 ZN,RunPeriod: SPAWN-RUNPERIOD,0.0000000000,0.0000000000,Pass,Pass,0.0000000000,0.0000000000,Pass,Pass
 Warmup Convergence Information,ACTIVESTORAGE_TOP_4 ZN,RunPeriod: SPAWN-RUNPERIOD,0.0000000000,0.0000000000,Pass,Pass,0.0000000000,0.0000000000,Pass,Pass
 Warmup Convergence Information,CLASSROOM_BOT ZN,RunPeriod: SPAWN-RUNPERIOD,1.9986091365E-002,1.8075498439E-002,Pass,Pass,0.0000000000,0.0000000000,Pass,Pass
 Warmup Convergence Information,CONFROOM_BOT_1 ZN,RunPeriod: SPAWN-RUNPERIOD,7.9211731926E-002,8.4038022649E-002,Pass,Pass,0.0000000000,0.0000000000,Pass,Pass
 Warmup Convergence Information,CONFROOM_BOT_2 ZN,RunPeriod: SPAWN-RUNPERIOD,8.9073142607E-002,0.1049810440,Pass,Pass,0.0000000000,0.0000000000,Pass,Pass
 Warmup Convergence Information,CONFROOM_MID_1 ZN,RunPeriod: SPAWN-RUNPERIOD,7.7990380953E-002,8.0395667813E-002,Pass,Pass,0.0000000000,0.0000000000,Pass,Pass
 Warmup Convergence Information,CONFROOM_MID_2 ZN,RunPeriod: SPAWN-RUNPERIOD,8.7248930421E-002,0.1007096777,Pass,Pass,0.0000000000,0.0000000000,Pass,Pass
 Warmup Convergence Information,CONFROOM_TOP_1 ZN,RunPeriod: SPAWN-RUNPERIOD,0.0000000000,0.0000000000,Pass,Pass,0.0000000000,0.0000000000,Pass,Pass
 Warmup Convergence Information,CONFROOM_TOP_2 ZN,RunPeriod: SPAWN-RUNPERIOD,0.0000000000,0.0000000000,Pass,Pass,0.0000000000,0.0000000000,Pass,Pass
 Warmup Convergence Information,CORRIDOR_BOT_1 ZN,RunPeriod: SPAWN-RUNPERIOD,1.5566688739E-002,1.3547808725E-002,Pass,Pass,0.0000000000,0.0000000000,Pass,Pass
 Warmup Convergence Information,CORRIDOR_BOT_2 ZN,RunPeriod: SPAWN-RUNPERIOD,6.5546206106E-003,4.0425839702E-003,Pass,Pass,0.0000000000,0.0000000000,Pass,Pass
 Warmup Convergence Information,CORRIDOR_MID_1 ZN,RunPeriod: SPAWN-RUNPERIOD,1.6133370231E-002,1.4191366620E-002,Pass,Pass,0.0000000000,0.0000000000,Pass,Pass
 Warmup Convergence Information,CORRIDOR_MID_2 ZN,RunPeriod: SPAWN-RUNPERIOD,8.1789732851E-003,4.9444523213E-003,Pass,Pass,0.0000000000,0.0000000000,Pass,Pass
 Warmup Convergence Information,CORRIDOR_TOP_1 ZN,RunPeriod: SPAWN-RUNPERIOD,0.0000000000,0.0000000000,Pass,Pass,0.0000000000,0.0000000000,Pass,Pass
 Warmup Convergence Information,CORRIDOR_TOP_2 ZN,RunPeriod: SPAWN-RUNPERIOD,0.0000000000,0.0000000000,Pass,Pass,0.0000000000,0.0000000000,Pass,Pass
 Warmup Convergence Information,DINING_BOT ZN,RunPeriod: SPAWN-RUNPERIOD,2.7456025821E-003,3.9621847690E-003,Pass,Pass,0.0000000000,0.0000000000,Pass,Pass
 Warmup Convergence Information,DINING_MID ZN,RunPeriod: SPAWN-RUNPERIOD,5.1655387778E-003,4.2984436938E-003,Pass,Pass,0.0000000000,0.0000000000,Pass,Pass
 Warmup Convergence Information,DINING_TOP ZN,RunPeriod: SPAWN-RUNPERIOD,0.0000000000,0.0000000000,Pass,Pass,0.0000000000,0.0000000000,Pass,Pass
 Warmup Convergence Information,ENCLOSEDOFFICE_BOT_1 ZN,RunPeriod: SPAWN-RUNPERIOD,3.1498531339E-002,2.3324491008E-002,Pass,Pass,0.0000000000,0.0000000000,Pass,Pass
 Warmup Convergence Information,ENCLOSEDOFFICE_BOT_2 ZN,RunPeriod: SPAWN-RUNPERIOD,4.9524109214E-002,7.1272604189E-002,Pass,Pass,0.0000000000,0.0000000000,Pass,Pass
 Warmup Convergence Information,ENCLOSEDOFFICE_BOT_3 ZN,RunPeriod: SPAWN-RUNPERIOD,7.4068113659E-002,8.1673463231E-002,Pass,Pass,0.0000000000,0.0000000000,Pass,Pass
 Warmup Convergence Information,ENCLOSEDOFFICE_BOT_4 ZN,RunPeriod: SPAWN-RUNPERIOD,7.4970880241E-002,8.2788624060E-002,Pass,Pass,0.0000000000,0.0000000000,Pass,Pass
 Warmup Convergence Information,ENCLOSEDOFFICE_BOT_5 ZN,RunPeriod: SPAWN-RUNPERIOD,2.8409811626E-002,2.2953667236E-002,Pass,Pass,0.0000000000,0.0000000000,Pass,Pass
 Warmup Convergence Information,ENCLOSEDOFFICE_BOT_6 ZN,RunPeriod: SPAWN-RUNPERIOD,2.6787349986E-002,2.1597014154E-002,Pass,Pass,0.0000000000,0.0000000000,Pass,Pass
 Warmup Convergence Information,ENCLOSEDOFFICE_BOT_7 ZN,RunPeriod: SPAWN-RUNPERIOD,3.6369886872E-002,3.1309895731E-002,Pass,Pass,0.0000000000,0.0000000000,Pass,Pass
 Warmup Convergence Information,ENCLOSEDOFFICE_BOT_8 ZN,RunPeriod: SPAWN-RUNPERIOD,4.7098674744E-002,7.1188116228E-002,Pass,Pass,0.0000000000,0.0000000000,Pass,Pass
 Warmup Convergence Information,ENCLOSEDOFFICE_BOT_9 ZN,RunPeriod: SPAWN-RUNPERIOD,4.7335692438E-002,7.1738245481E-002,Pass,Pass,0.0000000000,0.0000000000,Pass,Pass
 Warmup Convergence Information,ENCLOSEDOFFICE_BOT_10 ZN,RunPeriod: SPAWN-RUNPERIOD,4.8286980453E-002,7.0805810999E-002,Pass,Pass,0.0000000000,0.0000000000,Pass,Pass
 Warmup Convergence Information,ENCLOSEDOFFICE_MID_1 ZN,RunPeriod: SPAWN-RUNPERIOD,3.3333354393E-002,2.5145337336E-002,Pass,Pass,0.0000000000,0.0000000000,Pass,Pass
 Warmup Convergence Information,ENCLOSEDOFFICE_MID_2 ZN,RunPeriod: SPAWN-RUNPERIOD,4.9373945379E-002,6.8689645116E-002,Pass,Pass,0.0000000000,0.0000000000,Pass,Pass
 Warmup Convergence Information,ENCLOSEDOFFICE_MID_3 ZN,RunPeriod: SPAWN-RUNPERIOD,2.3158638266E-002,2.0164954278E-002,Pass,Pass,0.0000000000,0.0000000000,Pass,Pass
 Warmup Convergence Information,ENCLOSEDOFFICE_MID_4 ZN,RunPeriod: SPAWN-RUNPERIOD,3.0182724705E-002,2.5426330279E-002,Pass,Pass,0.0000000000,0.0000000000,Pass,Pass
 Warmup Convergence Information,ENCLOSEDOFFICE_MID_5 ZN,RunPeriod: SPAWN-RUNPERIOD,2.9765609752E-002,2.5487146564E-002,Pass,Pass,0.0000000000,0.0000000000,Pass,Pass
 Warmup Convergence Information,ENCLOSEDOFFICE_MID_6 ZN,RunPeriod: SPAWN-RUNPERIOD,3.8982161285E-002,3.4747955402E-002,Pass,Pass,0.0000000000,0.0000000000,Pass,Pass
 Warmup Convergence Information,ENCLOSEDOFFICE_MID_7 ZN,RunPeriod: SPAWN-RUNPERIOD,4.6677879743E-002,6.8921756839E-002,Pass,Pass,0.0000000000,0.0000000000,Pass,Pass
 Warmup Convergence Information,ENCLOSEDOFFICE_MID_8 ZN,RunPeriod: SPAWN-RUNPERIOD,4.6938429771E-002,6.9683263783E-002,Pass,Pass,0.0000000000,0.0000000000,Pass,Pass
 Warmup Convergence Information,ENCLOSEDOFFICE_MID_9 ZN,RunPeriod: SPAWN-RUNPERIOD,4.7394842386E-002,6.9054500010E-002,Pass,Pass,0.0000000000,0.0000000000,Pass,Pass
 Warmup Convergence Information,ENCLOSEDOFFICE_TOP_1 ZN,RunPeriod: SPAWN-RUNPERIOD,0.0000000000,0.0000000000,Pass,Pass,0.0000000000,0.0000000000,Pass,Pass
 Warmup Convergence Information,ENCLOSEDOFFICE_TOP_2 ZN,RunPeriod: SPAWN-RUNPERIOD,0.0000000000,0.0000000000,Pass,Pass,0.0000000000,0.0000000000,Pass,Pass
 Warmup Convergence Information,ENCLOSEDOFFICE_TOP_3 ZN,RunPeriod: SPAWN-RUNPERIOD,0.0000000000,0.0000000000,Pass,Pass,0.0000000000,0.0000000000,Pass,Pass
 Warmup Convergence Information,ENCLOSEDOFFICE_TOP_4 ZN,RunPeriod: SPAWN-RUNPERIOD,3.6077654174E-002,2.9672083529E-002,Pass,Pass,0.0000000000,0.0000000000,Pass,Pass
 Warmup Convergence Information,ENCLOSEDOFFICE_TOP_5 ZN,RunPeriod: SPAWN-RUNPERIOD,3.6958360117E-002,3.0538563609E-002,Pass,Pass,0.0000000000,0.0000000000,Pass,Pass
 Warmup Convergence Information,ENCLOSEDOFFICE_TOP_6 ZN,RunPeriod: SPAWN-RUNPERIOD,4.6125784255E-002,4.0028703010E-002,Pass,Pass,0.0000000000,0.0000000000,Pass,Pass
 Warmup Convergence Information,ENCLOSEDOFFICE_TOP_7 ZN,RunPeriod: SPAWN-RUNPERIOD,4.9659586071E-002,7.0620956607E-002,Pass,Pass,0.0000000000,0.0000000000,Pass,Pass
 Warmup Convergence Information,ENCLOSEDOFFICE_TOP_8 ZN,RunPeriod: SPAWN-RUNPERIOD,4.9782093472E-002,7.0174877442E-002,Pass,Pass,0.0000000000,0.0000000000,Pass,Pass
 Warmup Convergence Information,ENCLOSEDOFFICE_TOP_9 ZN,RunPeriod: SPAWN-RUNPERIOD,4.9288536432E-002,7.0010470775E-002,Pass,Pass,0.0000000000,0.0000000000,Pass,Pass
 Warmup Convergence Information,FIRSTFLOOR_PLENUM ZN,RunPeriod: SPAWN-RUNPERIOD,1.1177332970E-002,6.8709756572E-003,Pass,Pass,0.0000000000,0.0000000000,Pass,Pass
 Warmup Convergence Information,LOBBY_BOT ZN,RunPeriod: SPAWN-RUNPERIOD,2.1501199143E-003,1.3750887281E-003,Pass,Pass,0.0000000000,0.0000000000,Pass,Pass
 Warmup Convergence Information,LOBBY_MID ZN,RunPeriod: SPAWN-RUNPERIOD,4.7666559356E-003,3.0412605130E-003,Pass,Pass,0.0000000000,0.0000000000,Pass,Pass
 Warmup Convergence Information,LOBBY_TOP ZN,RunPeriod: SPAWN-RUNPERIOD,0.0000000000,0.0000000000,Pass,Pass,0.0000000000,0.0000000000,Pass,Pass
 Warmup Convergence Information,LOUNGE_BOT ZN,RunPeriod: SPAWN-RUNPERIOD,7.4541823585E-002,8.4107990786E-002,Pass,Pass,0.0000000000,0.0000000000,Pass,Pass
 Warmup Convergence Information,MECHANICAL_BOT ZN,RunPeriod: SPAWN-RUNPERIOD,1.8391331578E-003,1.2515618035E-003,Pass,Pass,0.0000000000,0.0000000000,Pass,Pass
 Warmup Convergence Information,MECHANICAL_MID ZN,RunPeriod: SPAWN-RUNPERIOD,4.5216085266E-003,2.8781456082E-003,Pass,Pass,0.0000000000,0.0000000000,Pass,Pass
 Warmup Convergence Information,MECHANICAL_TOP ZN,RunPeriod: SPAWN-RUNPERIOD,0.0000000000,0.0000000000,Pass,Pass,0.0000000000,0.0000000000,Pass,Pass
 Warmup Convergence Information,MIDFLOOR_PLENUM ZN,RunPeriod: SPAWN-RUNPERIOD,2.3047518321E-002,1.2592789513E-002,Pass,Pass,0.0000000000,0.0000000000,Pass,Pass
 Warmup Convergence Information,OPENOFFICE_BOT_1 ZN,RunPeriod: SPAWN-RUNPERIOD,3.5465370744E-003,4.4023129840E-003,Pass,Pass,0.0000000000,0.0000000000,Pass,Pass
 Warmup Convergence Information,OPENOFFICE_BOT_2 ZN,RunPeriod: SPAWN-RUNPERIOD,3.5364021743E-003,4.4215438493E-003,Pass,Pass,0.0000000000,0.0000000000,Pass,Pass
 Warmup Convergence Information,OPENOFFICE_BOT_3 ZN,RunPeriod: SPAWN-RUNPERIOD,2.0021220398E-002,1.9593959250E-002,Pass,Pass,0.0000000000,0.0000000000,Pass,Pass
 Warmup Convergence Information,OPENOFFICE_MID_1 ZN,RunPeriod: SPAWN-RUNPERIOD,6.2638336944E-003,4.7702776014E-003,Pass,Pass,0.0000000000,0.0000000000,Pass,Pass
 Warmup Convergence Information,OPENOFFICE_MID_2 ZN,RunPeriod: SPAWN-RUNPERIOD,6.2685727683E-003,4.7773516363E-003,Pass,Pass,0.0000000000,0.0000000000,Pass,Pass
 Warmup Convergence Information,OPENOFFICE_MID_3 ZN,RunPeriod: SPAWN-RUNPERIOD,2.3724673039E-002,2.1182849989E-002,Pass,Pass,0.0000000000,0.0000000000,Pass,Pass
 Warmup Convergence Information,OPENOFFICE_MID_4 ZN,RunPeriod: SPAWN-RUNPERIOD,7.4731184261E-002,8.1364164571E-002,Pass,Pass,0.0000000000,0.0000000000,Pass,Pass
 Warmup Convergence Information,OPENOFFICE_TOP_1 ZN,RunPeriod: SPAWN-RUNPERIOD,0.0000000000,0.0000000000,Pass,Pass,0.0000000000,0.0000000000,Pass,Pass
 Warmup Convergence Information,OPENOFFICE_TOP_2 ZN,RunPeriod: SPAWN-RUNPERIOD,0.0000000000,0.0000000000,Pass,Pass,0.0000000000,0.0000000000,Pass,Pass
 Warmup Convergence Information,OPENOFFICE_TOP_3 ZN,RunPeriod: SPAWN-RUNPERIOD,0.0000000000,0.0000000000,Pass,Pass,0.0000000000,0.0000000000,Pass,Pass
 Warmup Convergence Information,OPENOFFICE_TOP_4 ZN,RunPeriod: SPAWN-RUNPERIOD,0.0000000000,0.0000000000,Pass,Pass,0.0000000000,0.0000000000,Pass,Pass
 Warmup Convergence Information,RESTROOM_BOT ZN,RunPeriod: SPAWN-RUNPERIOD,1.8754173935E-003,1.2626906099E-003,Pass,Pass,0.0000000000,0.0000000000,Pass,Pass
 Warmup Convergence Information,RESTROOM_MID ZN,RunPeriod: SPAWN-RUNPERIOD,4.5987791090E-003,2.9184472920E-003,Pass,Pass,0.0000000000,0.0000000000,Pass,Pass
 Warmup Convergence Information,RESTROOM_TOP ZN,RunPeriod: SPAWN-RUNPERIOD,0.0000000000,0.0000000000,Pass,Pass,0.0000000000,0.0000000000,Pass,Pass
 Warmup Convergence Information,STAIR_BOT_1 ZN,RunPeriod: SPAWN-RUNPERIOD,1.8472192705E-003,1.0476299226E-003,Pass,Pass,0.0000000000,0.0000000000,Pass,Pass
 Warmup Convergence Information,STAIR_BOT_2 ZN,RunPeriod: SPAWN-RUNPERIOD,1.8420735596E-003,1.0442630374E-003,Pass,Pass,0.0000000000,0.0000000000,Pass,Pass
 Warmup Convergence Information,STAIR_MID_1 ZN,RunPeriod: SPAWN-RUNPERIOD,4.5860450565E-003,2.8174057889E-003,Pass,Pass,0.0000000000,0.0000000000,Pass,Pass
 Warmup Convergence Information,STAIR_MID_2 ZN,RunPeriod: SPAWN-RUNPERIOD,4.5793796587E-003,2.8169890535E-003,Pass,Pass,0.0000000000,0.0000000000,Pass,Pass
 Warmup Convergence Information,STAIR_TOP_1 ZN,RunPeriod: SPAWN-RUNPERIOD,0.0000000000,0.0000000000,Pass,Pass,0.0000000000,0.0000000000,Pass,Pass
 Warmup Convergence Information,STAIR_TOP_2 ZN,RunPeriod: SPAWN-RUNPERIOD,0.0000000000,0.0000000000,Pass,Pass,0.0000000000,0.0000000000,Pass,Pass
 Warmup Convergence Information,TOPFLOOR_PLENUM ZN,RunPeriod: SPAWN-RUNPERIOD,3.7715890347E-002,3.2142738958E-002,Pass,Pass,0.0000000000,0.0000000000,Pass,Pass
! <Program Control Information:Threads/Parallel Sims>, Threading Supported,Maximum Number of Threads, Env Set Threads (OMP_NUM_THREADS), EP Env Set Threads (EP_OMP_NUM_THREADS), IDF Set Threads, Number of Threads Used (Interior Radiant Exchange), Number Nominal Surfaces, Number Parallel Sims
Program Control:Threads/Parallel Sims, No,1, N/A, N/A, N/A, N/A, N/A, N/A
End of Data
