  0
SECTION
  2
ENTITIES
999
DXF created from EnergyPlus
999
Program Version,EnergyPlus, Version 9.6.0-316f894e91, YMD=2026.02.17 17:11
999
Polygon Action,ThickPolyline
999
Color Scheme,Default
999
Text - True North
  0
TEXT
  8
1
  6
Continuous
 62
  3
 10
      -11.00000
 20
        3.00000
 30
        0.10000
 40
 .25
  1
True North
 41
 0.0
  7
MONOTXT
210
0.0
220
0.0
230
1.0
999
Text - Building Title
  0
TEXT
  8
1
  6
Continuous
 62
  3
 10
      -14.00000
 20
       -1.00000
 30
        0.10000
 40
 .4
  1
Building - OfficeMedium
 41
 0.0
  7
MONOTXT
210
0.0
220
0.0
230
1.0
999
North Arrow Stem
  0
3DFACE
  8
1
 62
  3
 10
      -10.00000
 20
        3.00000
 30
        0.10000
 11
      -10.00000
 21
        3.00000
 31
        0.00000
 12
      -10.00000
 22
       -0.00000
 32
        0.00000
 13
      -10.00000
 23
       -0.00000
 33
        0.10000
999
North Arrow Head 1
  0
3DFACE
  8
1
 62
  3
 10
      -10.00000
 20
        3.00000
 30
        0.10000
 11
      -10.00000
 21
        3.00000
 31
        0.00000
 12
      -10.50000
 22
        2.13397
 32
        0.00000
 13
      -10.50000
 23
        2.13397
 33
        0.10000
999
North Arrow Head 2
  0
3DFACE
  8
1
 62
  3
 10
      -10.00000
 20
        3.00000
 30
        0.10000
 11
      -10.00000
 21
        3.00000
 31
        0.00000
 12
       -9.50000
 22
        2.13397
 32
        0.00000
 13
       -9.50000
 23
        2.13397
 33
        0.10000
999
North Arrow Side 1
  0
3DFACE
  8
1
 62
  3
 10
      -10.50000
 20
        4.50000
 30
        0.10000
 11
      -10.50000
 21
        4.50000
 31
        0.00000
 12
      -10.50000
 22
        3.50000
 32
        0.00000
 13
      -10.50000
 23
        3.50000
 33
        0.10000
999
North Arrow Side 2
  0
3DFACE
  8
1
 62
  3
 10
      -10.50000
 20
        4.50000
 30
        0.10000
 11
      -10.50000
 21
        4.50000
 31
        0.00000
 12
       -9.50000
 22
        3.50000
 32
        0.00000
 13
       -9.50000
 23
        3.50000
 33
        0.10000
999
North Arrow Side 3
  0
3DFACE
  8
1
 62
  3
 10
       -9.50000
 20
        4.50000
 30
        0.10000
 11
       -9.50000
 21
        4.50000
 31
        0.00000
 12
       -9.50000
 22
        3.50000
 32
        0.00000
 13
       -9.50000
 23
        3.50000
 33
        0.10000
999
Zone Names
999
Zone=1:ACTIVESTORAGE_BOT_1_ZN
999
Zone=2:ACTIVESTORAGE_BOT_2_ZN
999
Zone=3:ACTIVESTORAGE_BOT_3_ZN
999
Zone=4:ACTIVESTORAGE_BOT_4_ZN
999
Zone=5:ACTIVESTORAGE_MID_1_ZN
999
Zone=6:ACTIVESTORAGE_MID_2_ZN
999
Zone=7:ACTIVESTORAGE_MID_3_ZN
999
Zone=8:ACTIVESTORAGE_MID_4_ZN
999
Zone=9:ACTIVESTORAGE_TOP_1_ZN
999
Zone=10:ACTIVESTORAGE_TOP_2_ZN
999
Zone=11:ACTIVESTORAGE_TOP_3_ZN
999
Zone=12:ACTIVESTORAGE_TOP_4_ZN
999
Zone=13:CLASSROOM_BOT_ZN
999
Zone=14:CONFROOM_BOT_1_ZN
999
Zone=15:CONFROOM_BOT_2_ZN
999
Zone=16:CONFROOM_MID_1_ZN
999
Zone=17:CONFROOM_MID_2_ZN
999
Zone=18:CONFROOM_TOP_1_ZN
999
Zone=19:CONFROOM_TOP_2_ZN
999
Zone=20:CORRIDOR_BOT_1_ZN
999
Zone=21:CORRIDOR_BOT_2_ZN
999
Zone=22:CORRIDOR_MID_1_ZN
999
Zone=23:CORRIDOR_MID_2_ZN
999
Zone=24:CORRIDOR_TOP_1_ZN
999
Zone=25:CORRIDOR_TOP_2_ZN
999
Zone=26:DINING_BOT_ZN
999
Zone=27:DINING_MID_ZN
999
Zone=28:DINING_TOP_ZN
999
Zone=29:ENCLOSEDOFFICE_BOT_1_ZN
999
Zone=30:ENCLOSEDOFFICE_BOT_2_ZN
999
Zone=31:ENCLOSEDOFFICE_BOT_3_ZN
999
Zone=32:ENCLOSEDOFFICE_BOT_4_ZN
999
Zone=33:ENCLOSEDOFFICE_BOT_5_ZN
999
Zone=34:ENCLOSEDOFFICE_BOT_6_ZN
999
Zone=35:ENCLOSEDOFFICE_BOT_7_ZN
999
Zone=36:ENCLOSEDOFFICE_BOT_8_ZN
999
Zone=37:ENCLOSEDOFFICE_BOT_9_ZN
999
Zone=38:ENCLOSEDOFFICE_BOT_10_ZN
999
Zone=39:ENCLOSEDOFFICE_MID_1_ZN
999
Zone=40:ENCLOSEDOFFICE_MID_2_ZN
999
Zone=41:ENCLOSEDOFFICE_MID_3_ZN
999
Zone=42:ENCLOSEDOFFICE_MID_4_ZN
999
Zone=43:ENCLOSEDOFFICE_MID_5_ZN
999
Zone=44:ENCLOSEDOFFICE_MID_6_ZN
999
Zone=45:ENCLOSEDOFFICE_MID_7_ZN
999
Zone=46:ENCLOSEDOFFICE_MID_8_ZN
999
Zone=47:ENCLOSEDOFFICE_MID_9_ZN
999
Zone=48:ENCLOSEDOFFICE_TOP_1_ZN
999
Zone=49:ENCLOSEDOFFICE_TOP_2_ZN
999
Zone=50:ENCLOSEDOFFICE_TOP_3_ZN
999
Zone=51:ENCLOSEDOFFICE_TOP_4_ZN
999
Zone=52:ENCLOSEDOFFICE_TOP_5_ZN
999
Zone=53:ENCLOSEDOFFICE_TOP_6_ZN
999
Zone=54:ENCLOSEDOFFICE_TOP_7_ZN
999
Zone=55:ENCLOSEDOFFICE_TOP_8_ZN
999
Zone=56:ENCLOSEDOFFICE_TOP_9_ZN
999
Zone=57:FIRSTFLOOR_PLENUM_ZN
999
Zone=58:LOBBY_BOT_ZN
999
Zone=59:LOBBY_MID_ZN
999
Zone=60:LOBBY_TOP_ZN
999
Zone=61:LOUNGE_BOT_ZN
999
Zone=62:MECHANICAL_BOT_ZN
999
Zone=63:MECHANICAL_MID_ZN
999
Zone=64:MECHANICAL_TOP_ZN
999
Zone=65:MIDFLOOR_PLENUM_ZN
999
Zone=66:OPENOFFICE_BOT_1_ZN
999
Zone=67:OPENOFFICE_BOT_2_ZN
999
Zone=68:OPENOFFICE_BOT_3_ZN
999
Zone=69:OPENOFFICE_MID_1_ZN
999
Zone=70:OPENOFFICE_MID_2_ZN
999
Zone=71:OPENOFFICE_MID_3_ZN
999
Zone=72:OPENOFFICE_MID_4_ZN
999
Zone=73:OPENOFFICE_TOP_1_ZN
999
Zone=74:OPENOFFICE_TOP_2_ZN
999
Zone=75:OPENOFFICE_TOP_3_ZN
999
Zone=76:OPENOFFICE_TOP_4_ZN
999
Zone=77:RESTROOM_BOT_ZN
999
Zone=78:RESTROOM_MID_ZN
999
Zone=79:RESTROOM_TOP_ZN
999
Zone=80:STAIR_BOT_1_ZN
999
Zone=81:STAIR_BOT_2_ZN
999
Zone=82:STAIR_MID_1_ZN
999
Zone=83:STAIR_MID_2_ZN
999
Zone=84:STAIR_TOP_1_ZN
999
Zone=85:STAIR_TOP_2_ZN
999
Zone=86:TOPFLOOR_PLENUM_ZN
999
ACTIVESTORAGE_BOT_1 ZN:ACTIVESTORAGE_BOT_1_ZN_WALL_EAST
  0
3DFACE
  8
ACTIVESTORAGE_BOT_1_ZN
 62
 43
 10
       23.43150
 20
        6.56114
 30
        2.74320
 11
       23.43150
 21
        6.56114
 31
        0.00000
 12
       23.43150
 22
       11.04106
 32
        0.00000
 13
       23.43150
 23
       11.04106
 33
        2.74320
999
ACTIVESTORAGE_BOT_1 ZN:ACTIVESTORAGE_BOT_1_ZN_WALL_NORTH_1
  0
3DFACE
  8
ACTIVESTORAGE_BOT_1_ZN
 62
 43
 10
       18.09750
 20
       11.04106
 30
        2.74320
 11
       18.09750
 21
       11.04106
 31
        0.00000
 12
       15.35430
 22
       11.04106
 32
        0.00000
 13
       15.35430
 23
       11.04106
 33
        2.74320
999
ACTIVESTORAGE_BOT_1 ZN:ACTIVESTORAGE_BOT_1_ZN_WALL_NORTH_2
  0
3DFACE
  8
ACTIVESTORAGE_BOT_1_ZN
 62
 43
 10
       23.43150
 20
       11.04106
 30
        2.74320
 11
       23.43150
 21
       11.04106
 31
        0.00000
 12
       18.09750
 22
       11.04106
 32
        0.00000
 13
       18.09750
 23
       11.04106
 33
        2.74320
999
ACTIVESTORAGE_BOT_1 ZN:ACTIVESTORAGE_BOT_1_ZN_WALL_SOUTH
  0
3DFACE
  8
ACTIVESTORAGE_BOT_1_ZN
 62
 43
 10
       15.35430
 20
        6.56114
 30
        2.74320
 11
       15.35430
 21
        6.56114
 31
        0.00000
 12
       23.43150
 22
        6.56114
 32
        0.00000
 13
       23.43150
 23
        6.56114
 33
        2.74320
999
ACTIVESTORAGE_BOT_1 ZN:ACTIVESTORAGE_BOT_1_ZN_WALL_WEST
  0
3DFACE
  8
ACTIVESTORAGE_BOT_1_ZN
 62
 43
 10
       15.35430
 20
       11.04106
 30
        2.74320
 11
       15.35430
 21
       11.04106
 31
        0.00000
 12
       15.35430
 22
        6.56114
 32
        0.00000
 13
       15.35430
 23
        6.56114
 33
        2.74320
999
ACTIVESTORAGE_BOT_1 ZN:ACTIVESTORAGE_BOT_1_ZN_FLOOR
  0
3DFACE
  8
ACTIVESTORAGE_BOT_1_ZN
 62
  8
 10
       23.43150
 20
       11.04106
 30
        0.00000
 11
       23.43150
 21
        6.56114
 31
        0.00000
 12
       15.35430
 22
        6.56114
 32
        0.00000
 13
       15.35430
 23
       11.04106
 33
        0.00000
999
ACTIVESTORAGE_BOT_1 ZN:ACTIVESTORAGE_BOT_1_ZN_CEILING
  0
3DFACE
  8
ACTIVESTORAGE_BOT_1_ZN
 62
 15
 10
       15.35430
 20
       11.04106
 30
        2.74320
 11
       15.35430
 21
        6.56114
 31
        2.74320
 12
       23.43150
 22
        6.56114
 32
        2.74320
 13
       23.43150
 23
       11.04106
 33
        2.74320
999
ACTIVESTORAGE_BOT_2 ZN:ACTIVESTORAGE_BOT_2_ZN_WALL_EAST
  0
3DFACE
  8
ACTIVESTORAGE_BOT_2_ZN
 62
 43
 10
       33.67246
 20
        6.56114
 30
        2.74320
 11
       33.67246
 21
        6.56114
 31
        0.00000
 12
       33.67246
 22
       11.04106
 32
        0.00000
 13
       33.67246
 23
       11.04106
 33
        2.74320
999
ACTIVESTORAGE_BOT_2 ZN:ACTIVESTORAGE_BOT_2_ZN_WALL_NORTH_1
  0
3DFACE
  8
ACTIVESTORAGE_BOT_2_ZN
 62
 43
 10
       30.92926
 20
       11.04106
 30
        2.74320
 11
       30.92926
 21
       11.04106
 31
        0.00000
 12
       26.47950
 22
       11.04106
 32
        0.00000
 13
       26.47950
 23
       11.04106
 33
        2.74320
999
ACTIVESTORAGE_BOT_2 ZN:ACTIVESTORAGE_BOT_2_ZN_WALL_NORTH_2
  0
3DFACE
  8
ACTIVESTORAGE_BOT_2_ZN
 62
 43
 10
       33.67246
 20
       11.04106
 30
        2.74320
 11
       33.67246
 21
       11.04106
 31
        0.00000
 12
       30.92926
 22
       11.04106
 32
        0.00000
 13
       30.92926
 23
       11.04106
 33
        2.74320
999
ACTIVESTORAGE_BOT_2 ZN:ACTIVESTORAGE_BOT_2_ZN_WALL_SOUTH
  0
3DFACE
  8
ACTIVESTORAGE_BOT_2_ZN
 62
 43
 10
       26.47950
 20
        6.56114
 30
        2.74320
 11
       26.47950
 21
        6.56114
 31
        0.00000
 12
       33.67246
 22
        6.56114
 32
        0.00000
 13
       33.67246
 23
        6.56114
 33
        2.74320
999
ACTIVESTORAGE_BOT_2 ZN:ACTIVESTORAGE_BOT_2_ZN_WALL_WEST
  0
3DFACE
  8
ACTIVESTORAGE_BOT_2_ZN
 62
 43
 10
       26.47950
 20
       11.04106
 30
        2.74320
 11
       26.47950
 21
       11.04106
 31
        0.00000
 12
       26.47950
 22
        6.56114
 32
        0.00000
 13
       26.47950
 23
        6.56114
 33
        2.74320
999
ACTIVESTORAGE_BOT_2 ZN:ACTIVESTORAGE_BOT_2_ZN_FLOOR
  0
3DFACE
  8
ACTIVESTORAGE_BOT_2_ZN
 62
  8
 10
       33.67246
 20
       11.04106
 30
        0.00000
 11
       33.67246
 21
        6.56114
 31
        0.00000
 12
       26.47950
 22
        6.56114
 32
        0.00000
 13
       26.47950
 23
       11.04106
 33
        0.00000
999
ACTIVESTORAGE_BOT_2 ZN:ACTIVESTORAGE_BOT_2_ZN_CEILING
  0
3DFACE
  8
ACTIVESTORAGE_BOT_2_ZN
 62
 15
 10
       26.47950
 20
       11.04106
 30
        2.74320
 11
       26.47950
 21
        6.56114
 31
        2.74320
 12
       33.67246
 22
        6.56114
 32
        2.74320
 13
       33.67246
 23
       11.04106
 33
        2.74320
999
ACTIVESTORAGE_BOT_3 ZN:ACTIVESTORAGE_BOT_3_ZN_WALL_EAST
  0
3DFACE
  8
ACTIVESTORAGE_BOT_3_ZN
 62
 43
 10
       33.67246
 20
       22.23453
 30
        2.74320
 11
       33.67246
 21
       22.23453
 31
        0.00000
 12
       33.67246
 22
       26.71445
 32
        0.00000
 13
       33.67246
 23
       26.71445
 33
        2.74320
999
ACTIVESTORAGE_BOT_3 ZN:ACTIVESTORAGE_BOT_3_ZN_WALL_NORTH
  0
3DFACE
  8
ACTIVESTORAGE_BOT_3_ZN
 62
 43
 10
       33.67246
 20
       26.71445
 30
        2.74320
 11
       33.67246
 21
       26.71445
 31
        0.00000
 12
       26.47950
 22
       26.71445
 32
        0.00000
 13
       26.47950
 23
       26.71445
 33
        2.74320
999
ACTIVESTORAGE_BOT_3 ZN:ACTIVESTORAGE_BOT_3_ZN_WALL_SOUTH_1
  0
3DFACE
  8
ACTIVESTORAGE_BOT_3_ZN
 62
 43
 10
       30.92926
 20
       22.23453
 30
        2.74320
 11
       30.92926
 21
       22.23453
 31
        0.00000
 12
       33.67246
 22
       22.23453
 32
        0.00000
 13
       33.67246
 23
       22.23453
 33
        2.74320
999
ACTIVESTORAGE_BOT_3 ZN:ACTIVESTORAGE_BOT_3_ZN_WALL_SOUTH_2
  0
3DFACE
  8
ACTIVESTORAGE_BOT_3_ZN
 62
 43
 10
       26.47950
 20
       22.23453
 30
        2.74320
 11
       26.47950
 21
       22.23453
 31
        0.00000
 12
       30.92926
 22
       22.23453
 32
        0.00000
 13
       30.92926
 23
       22.23453
 33
        2.74320
999
ACTIVESTORAGE_BOT_3 ZN:ACTIVESTORAGE_BOT_3_ZN_WALL_WEST
  0
3DFACE
  8
ACTIVESTORAGE_BOT_3_ZN
 62
 43
 10
       26.47950
 20
       26.71445
 30
        2.74320
 11
       26.47950
 21
       26.71445
 31
        0.00000
 12
       26.47950
 22
       22.23453
 32
        0.00000
 13
       26.47950
 23
       22.23453
 33
        2.74320
999
ACTIVESTORAGE_BOT_3 ZN:ACTIVESTORAGE_BOT_3_ZN_FLOOR
  0
3DFACE
  8
ACTIVESTORAGE_BOT_3_ZN
 62
  8
 10
       33.67246
 20
       26.71445
 30
        0.00000
 11
       33.67246
 21
       22.23453
 31
        0.00000
 12
       26.47950
 22
       22.23453
 32
        0.00000
 13
       26.47950
 23
       26.71445
 33
        0.00000
999
ACTIVESTORAGE_BOT_3 ZN:ACTIVESTORAGE_BOT_3_ZN_CEILING
  0
3DFACE
  8
ACTIVESTORAGE_BOT_3_ZN
 62
 15
 10
       26.47950
 20
       26.71445
 30
        2.74320
 11
       26.47950
 21
       22.23453
 31
        2.74320
 12
       33.67246
 22
       22.23453
 32
        2.74320
 13
       33.67246
 23
       26.71445
 33
        2.74320
999
ACTIVESTORAGE_BOT_4 ZN:ACTIVESTORAGE_BOT_4_ZN_WALL_EAST
  0
3DFACE
  8
ACTIVESTORAGE_BOT_4_ZN
 62
 43
 10
       18.31022
 20
       22.23453
 30
        2.74320
 11
       18.31022
 21
       22.23453
 31
        0.00000
 12
       18.31022
 22
       26.71445
 32
        0.00000
 13
       18.31022
 23
       26.71445
 33
        2.74320
999
ACTIVESTORAGE_BOT_4 ZN:ACTIVESTORAGE_BOT_4_ZN_WALL_NORTH
  0
3DFACE
  8
ACTIVESTORAGE_BOT_4_ZN
 62
 43
 10
       18.31022
 20
       26.71445
 30
        2.74320
 11
       18.31022
 21
       26.71445
 31
        0.00000
 12
       15.35430
 22
       26.71445
 32
        0.00000
 13
       15.35430
 23
       26.71445
 33
        2.74320
999
ACTIVESTORAGE_BOT_4 ZN:ACTIVESTORAGE_BOT_4_ZN_WALL_SOUTH_1
  0
3DFACE
  8
ACTIVESTORAGE_BOT_4_ZN
 62
 43
 10
       18.09750
 20
       22.23453
 30
        2.74320
 11
       18.09750
 21
       22.23453
 31
        0.00000
 12
       18.31022
 22
       22.23453
 32
        0.00000
 13
       18.31022
 23
       22.23453
 33
        2.74320
999
ACTIVESTORAGE_BOT_4 ZN:ACTIVESTORAGE_BOT_4_ZN_WALL_SOUTH_2
  0
3DFACE
  8
ACTIVESTORAGE_BOT_4_ZN
 62
 43
 10
       15.35430
 20
       22.23453
 30
        2.74320
 11
       15.35430
 21
       22.23453
 31
        0.00000
 12
       18.09750
 22
       22.23453
 32
        0.00000
 13
       18.09750
 23
       22.23453
 33
        2.74320
999
ACTIVESTORAGE_BOT_4 ZN:ACTIVESTORAGE_BOT_4_ZN_WALL_WEST
  0
3DFACE
  8
ACTIVESTORAGE_BOT_4_ZN
 62
 43
 10
       15.35430
 20
       26.71445
 30
        2.74320
 11
       15.35430
 21
       26.71445
 31
        0.00000
 12
       15.35430
 22
       22.23453
 32
        0.00000
 13
       15.35430
 23
       22.23453
 33
        2.74320
999
ACTIVESTORAGE_BOT_4 ZN:ACTIVESTORAGE_BOT_4_ZN_FLOOR
  0
3DFACE
  8
ACTIVESTORAGE_BOT_4_ZN
 62
  8
 10
       18.31022
 20
       26.71445
 30
        0.00000
 11
       18.31022
 21
       22.23453
 31
        0.00000
 12
       15.35430
 22
       22.23453
 32
        0.00000
 13
       15.35430
 23
       26.71445
 33
        0.00000
999
ACTIVESTORAGE_BOT_4 ZN:ACTIVESTORAGE_BOT_4_ZN_CEILING
  0
3DFACE
  8
ACTIVESTORAGE_BOT_4_ZN
 62
 15
 10
       15.35430
 20
       26.71445
 30
        2.74320
 11
       15.35430
 21
       22.23453
 31
        2.74320
 12
       18.31022
 22
       22.23453
 32
        2.74320
 13
       18.31022
 23
       26.71445
 33
        2.74320
999
ACTIVESTORAGE_MID_1 ZN:ACTIVESTORAGE_MID_1_ZN_WALL_EAST
  0
3DFACE
  8
ACTIVESTORAGE_MID_1_ZN
 62
 43
 10
       23.43150
 20
        6.56114
 30
        6.70560
 11
       23.43150
 21
        6.56114
 31
        3.96240
 12
       23.43150
 22
       11.04106
 32
        3.96240
 13
       23.43150
 23
       11.04106
 33
        6.70560
999
ACTIVESTORAGE_MID_1 ZN:ACTIVESTORAGE_MID_1_ZN_WALL_NORTH_1
  0
3DFACE
  8
ACTIVESTORAGE_MID_1_ZN
 62
 43
 10
       23.43150
 20
       11.04106
 30
        6.70560
 11
       23.43150
 21
       11.04106
 31
        3.96240
 12
       18.09750
 22
       11.04106
 32
        3.96240
 13
       18.09750
 23
       11.04106
 33
        6.70560
999
ACTIVESTORAGE_MID_1 ZN:ACTIVESTORAGE_MID_1_ZN_WALL_NORTH_2
  0
3DFACE
  8
ACTIVESTORAGE_MID_1_ZN
 62
 43
 10
       18.09750
 20
       11.04106
 30
        6.70560
 11
       18.09750
 21
       11.04106
 31
        3.96240
 12
       15.35430
 22
       11.04106
 32
        3.96240
 13
       15.35430
 23
       11.04106
 33
        6.70560
999
ACTIVESTORAGE_MID_1 ZN:ACTIVESTORAGE_MID_1_ZN_WALL_SOUTH
  0
3DFACE
  8
ACTIVESTORAGE_MID_1_ZN
 62
 43
 10
       15.35430
 20
        6.56114
 30
        6.70560
 11
       15.35430
 21
        6.56114
 31
        3.96240
 12
       23.43150
 22
        6.56114
 32
        3.96240
 13
       23.43150
 23
        6.56114
 33
        6.70560
999
ACTIVESTORAGE_MID_1 ZN:ACTIVESTORAGE_MID_1_ZN_WALL_WEST
  0
3DFACE
  8
ACTIVESTORAGE_MID_1_ZN
 62
 43
 10
       15.35430
 20
       11.04106
 30
        6.70560
 11
       15.35430
 21
       11.04106
 31
        3.96240
 12
       15.35430
 22
        6.56114
 32
        3.96240
 13
       15.35430
 23
        6.56114
 33
        6.70560
999
ACTIVESTORAGE_MID_1 ZN:ACTIVESTORAGE_MID_1_ZN_FLOOR
  0
3DFACE
  8
ACTIVESTORAGE_MID_1_ZN
 62
  8
 10
       23.43150
 20
       11.04106
 30
        3.96240
 11
       23.43150
 21
        6.56114
 31
        3.96240
 12
       15.35430
 22
        6.56114
 32
        3.96240
 13
       15.35430
 23
       11.04106
 33
        3.96240
999
ACTIVESTORAGE_MID_1 ZN:ACTIVESTORAGE_MID_1_ZN_CEILING
  0
3DFACE
  8
ACTIVESTORAGE_MID_1_ZN
 62
 15
 10
       15.35430
 20
       11.04106
 30
        6.70560
 11
       15.35430
 21
        6.56114
 31
        6.70560
 12
       23.43150
 22
        6.56114
 32
        6.70560
 13
       23.43150
 23
       11.04106
 33
        6.70560
999
ACTIVESTORAGE_MID_2 ZN:ACTIVESTORAGE_MID_2_ZN_WALL_EAST
  0
3DFACE
  8
ACTIVESTORAGE_MID_2_ZN
 62
 43
 10
       33.67246
 20
        6.56114
 30
        6.70560
 11
       33.67246
 21
        6.56114
 31
        3.96240
 12
       33.67246
 22
       11.04106
 32
        3.96240
 13
       33.67246
 23
       11.04106
 33
        6.70560
999
ACTIVESTORAGE_MID_2 ZN:ACTIVESTORAGE_MID_2_ZN_WALL_NORTH_1
  0
3DFACE
  8
ACTIVESTORAGE_MID_2_ZN
 62
 43
 10
       30.92926
 20
       11.04106
 30
        6.70560
 11
       30.92926
 21
       11.04106
 31
        3.96240
 12
       26.47950
 22
       11.04106
 32
        3.96240
 13
       26.47950
 23
       11.04106
 33
        6.70560
999
ACTIVESTORAGE_MID_2 ZN:ACTIVESTORAGE_MID_2_ZN_WALL_NORTH_2
  0
3DFACE
  8
ACTIVESTORAGE_MID_2_ZN
 62
 43
 10
       33.67246
 20
       11.04106
 30
        6.70560
 11
       33.67246
 21
       11.04106
 31
        3.96240
 12
       30.92926
 22
       11.04106
 32
        3.96240
 13
       30.92926
 23
       11.04106
 33
        6.70560
999
ACTIVESTORAGE_MID_2 ZN:ACTIVESTORAGE_MID_2_ZN_WALL_SOUTH
  0
3DFACE
  8
ACTIVESTORAGE_MID_2_ZN
 62
 43
 10
       26.47950
 20
        6.56114
 30
        6.70560
 11
       26.47950
 21
        6.56114
 31
        3.96240
 12
       33.67246
 22
        6.56114
 32
        3.96240
 13
       33.67246
 23
        6.56114
 33
        6.70560
999
ACTIVESTORAGE_MID_2 ZN:ACTIVESTORAGE_MID_2_ZN_WALL_WEST
  0
3DFACE
  8
ACTIVESTORAGE_MID_2_ZN
 62
 43
 10
       26.47950
 20
       11.04106
 30
        6.70560
 11
       26.47950
 21
       11.04106
 31
        3.96240
 12
       26.47950
 22
        6.56114
 32
        3.96240
 13
       26.47950
 23
        6.56114
 33
        6.70560
999
ACTIVESTORAGE_MID_2 ZN:ACTIVESTORAGE_MID_2_ZN_FLOOR
  0
3DFACE
  8
ACTIVESTORAGE_MID_2_ZN
 62
  8
 10
       33.67246
 20
       11.04106
 30
        3.96240
 11
       33.67246
 21
        6.56114
 31
        3.96240
 12
       26.47950
 22
        6.56114
 32
        3.96240
 13
       26.47950
 23
       11.04106
 33
        3.96240
999
ACTIVESTORAGE_MID_2 ZN:ACTIVESTORAGE_MID_2_ZN_CEILING
  0
3DFACE
  8
ACTIVESTORAGE_MID_2_ZN
 62
 15
 10
       26.47950
 20
       11.04106
 30
        6.70560
 11
       26.47950
 21
        6.56114
 31
        6.70560
 12
       33.67246
 22
        6.56114
 32
        6.70560
 13
       33.67246
 23
       11.04106
 33
        6.70560
999
ACTIVESTORAGE_MID_3 ZN:ACTIVESTORAGE_MID_3_ZN_WALL_EAST
  0
3DFACE
  8
ACTIVESTORAGE_MID_3_ZN
 62
 43
 10
       33.67246
 20
       22.23453
 30
        6.70560
 11
       33.67246
 21
       22.23453
 31
        3.96240
 12
       33.67246
 22
       26.71445
 32
        3.96240
 13
       33.67246
 23
       26.71445
 33
        6.70560
999
ACTIVESTORAGE_MID_3 ZN:ACTIVESTORAGE_MID_3_ZN_WALL_NORTH
  0
3DFACE
  8
ACTIVESTORAGE_MID_3_ZN
 62
 43
 10
       33.67246
 20
       26.71445
 30
        6.70560
 11
       33.67246
 21
       26.71445
 31
        3.96240
 12
       26.47950
 22
       26.71445
 32
        3.96240
 13
       26.47950
 23
       26.71445
 33
        6.70560
999
ACTIVESTORAGE_MID_3 ZN:ACTIVESTORAGE_MID_3_ZN_WALL_SOUTH_1
  0
3DFACE
  8
ACTIVESTORAGE_MID_3_ZN
 62
 43
 10
       30.92926
 20
       22.23453
 30
        6.70560
 11
       30.92926
 21
       22.23453
 31
        3.96240
 12
       33.67246
 22
       22.23453
 32
        3.96240
 13
       33.67246
 23
       22.23453
 33
        6.70560
999
ACTIVESTORAGE_MID_3 ZN:ACTIVESTORAGE_MID_3_ZN_WALL_SOUTH_2
  0
3DFACE
  8
ACTIVESTORAGE_MID_3_ZN
 62
 43
 10
       26.47950
 20
       22.23453
 30
        6.70560
 11
       26.47950
 21
       22.23453
 31
        3.96240
 12
       30.92926
 22
       22.23453
 32
        3.96240
 13
       30.92926
 23
       22.23453
 33
        6.70560
999
ACTIVESTORAGE_MID_3 ZN:ACTIVESTORAGE_MID_3_ZN_WALL_WEST
  0
3DFACE
  8
ACTIVESTORAGE_MID_3_ZN
 62
 43
 10
       26.47950
 20
       26.71445
 30
        6.70560
 11
       26.47950
 21
       26.71445
 31
        3.96240
 12
       26.47950
 22
       22.23453
 32
        3.96240
 13
       26.47950
 23
       22.23453
 33
        6.70560
999
ACTIVESTORAGE_MID_3 ZN:ACTIVESTORAGE_MID_3_ZN_FLOOR
  0
3DFACE
  8
ACTIVESTORAGE_MID_3_ZN
 62
  8
 10
       33.67246
 20
       26.71445
 30
        3.96240
 11
       33.67246
 21
       22.23453
 31
        3.96240
 12
       26.47950
 22
       22.23453
 32
        3.96240
 13
       26.47950
 23
       26.71445
 33
        3.96240
999
ACTIVESTORAGE_MID_3 ZN:ACTIVESTORAGE_MID_3_ZN_CEILING
  0
3DFACE
  8
ACTIVESTORAGE_MID_3_ZN
 62
 15
 10
       26.47950
 20
       26.71445
 30
        6.70560
 11
       26.47950
 21
       22.23453
 31
        6.70560
 12
       33.67246
 22
       22.23453
 32
        6.70560
 13
       33.67246
 23
       26.71445
 33
        6.70560
999
ACTIVESTORAGE_MID_4 ZN:ACTIVESTORAGE_MID_4_ZN_WALL_EAST
  0
3DFACE
  8
ACTIVESTORAGE_MID_4_ZN
 62
 43
 10
       18.31023
 20
       22.23453
 30
        6.70560
 11
       18.31023
 21
       22.23453
 31
        3.96240
 12
       18.31023
 22
       26.71445
 32
        3.96240
 13
       18.31023
 23
       26.71445
 33
        6.70560
999
ACTIVESTORAGE_MID_4 ZN:ACTIVESTORAGE_MID_4_ZN_WALL_NORTH
  0
3DFACE
  8
ACTIVESTORAGE_MID_4_ZN
 62
 43
 10
       18.31023
 20
       26.71445
 30
        6.70560
 11
       18.31023
 21
       26.71445
 31
        3.96240
 12
       15.35430
 22
       26.71445
 32
        3.96240
 13
       15.35430
 23
       26.71445
 33
        6.70560
999
ACTIVESTORAGE_MID_4 ZN:ACTIVESTORAGE_MID_4_ZN_WALL_SOUTH_1
  0
3DFACE
  8
ACTIVESTORAGE_MID_4_ZN
 62
 43
 10
       15.35430
 20
       22.23453
 30
        6.70560
 11
       15.35430
 21
       22.23453
 31
        3.96240
 12
       18.09750
 22
       22.23453
 32
        3.96240
 13
       18.09750
 23
       22.23453
 33
        6.70560
999
ACTIVESTORAGE_MID_4 ZN:ACTIVESTORAGE_MID_4_ZN_WALL_SOUTH_2
  0
3DFACE
  8
ACTIVESTORAGE_MID_4_ZN
 62
 43
 10
       18.09750
 20
       22.23453
 30
        6.70560
 11
       18.09750
 21
       22.23453
 31
        3.96240
 12
       18.31023
 22
       22.23453
 32
        3.96240
 13
       18.31023
 23
       22.23453
 33
        6.70560
999
ACTIVESTORAGE_MID_4 ZN:ACTIVESTORAGE_MID_4_ZN_WALL_WEST
  0
3DFACE
  8
ACTIVESTORAGE_MID_4_ZN
 62
 43
 10
       15.35430
 20
       26.71445
 30
        6.70560
 11
       15.35430
 21
       26.71445
 31
        3.96240
 12
       15.35430
 22
       22.23453
 32
        3.96240
 13
       15.35430
 23
       22.23453
 33
        6.70560
999
ACTIVESTORAGE_MID_4 ZN:ACTIVESTORAGE_MID_4_ZN_FLOOR
  0
3DFACE
  8
ACTIVESTORAGE_MID_4_ZN
 62
  8
 10
       18.31023
 20
       26.71445
 30
        3.96240
 11
       18.31023
 21
       22.23453
 31
        3.96240
 12
       15.35430
 22
       22.23453
 32
        3.96240
 13
       15.35430
 23
       26.71445
 33
        3.96240
999
ACTIVESTORAGE_MID_4 ZN:ACTIVESTORAGE_MID_4_ZN_CEILING
  0
3DFACE
  8
ACTIVESTORAGE_MID_4_ZN
 62
 15
 10
       15.35430
 20
       26.71445
 30
        6.70560
 11
       15.35430
 21
       22.23453
 31
        6.70560
 12
       18.31023
 22
       22.23453
 32
        6.70560
 13
       18.31023
 23
       26.71445
 33
        6.70560
999
ACTIVESTORAGE_TOP_1 ZN:ACTIVESTORAGE_TOP_1_ZN_WALL_EAST
  0
3DFACE
  8
ACTIVESTORAGE_TOP_1_ZN
 62
 43
 10
       23.43150
 20
        6.56114
 30
       10.66800
 11
       23.43150
 21
        6.56114
 31
        7.92480
 12
       23.43150
 22
       11.04106
 32
        7.92480
 13
       23.43150
 23
       11.04106
 33
       10.66800
999
ACTIVESTORAGE_TOP_1 ZN:ACTIVESTORAGE_TOP_1_ZN_WALL_NORTH_1
  0
3DFACE
  8
ACTIVESTORAGE_TOP_1_ZN
 62
 43
 10
       23.43150
 20
       11.04106
 30
       10.66800
 11
       23.43150
 21
       11.04106
 31
        7.92480
 12
       18.09750
 22
       11.04106
 32
        7.92480
 13
       18.09750
 23
       11.04106
 33
       10.66800
999
ACTIVESTORAGE_TOP_1 ZN:ACTIVESTORAGE_TOP_1_ZN_WALL_NORTH_2
  0
3DFACE
  8
ACTIVESTORAGE_TOP_1_ZN
 62
 43
 10
       18.09750
 20
       11.04106
 30
       10.66800
 11
       18.09750
 21
       11.04106
 31
        7.92480
 12
       15.35430
 22
       11.04106
 32
        7.92480
 13
       15.35430
 23
       11.04106
 33
       10.66800
999
ACTIVESTORAGE_TOP_1 ZN:ACTIVESTORAGE_TOP_1_ZN_WALL_SOUTH
  0
3DFACE
  8
ACTIVESTORAGE_TOP_1_ZN
 62
 43
 10
       15.35430
 20
        6.56114
 30
       10.66800
 11
       15.35430
 21
        6.56114
 31
        7.92480
 12
       23.43150
 22
        6.56114
 32
        7.92480
 13
       23.43150
 23
        6.56114
 33
       10.66800
999
ACTIVESTORAGE_TOP_1 ZN:ACTIVESTORAGE_TOP_1_ZN_WALL_WEST
  0
3DFACE
  8
ACTIVESTORAGE_TOP_1_ZN
 62
 43
 10
       15.35430
 20
       11.04106
 30
       10.66800
 11
       15.35430
 21
       11.04106
 31
        7.92480
 12
       15.35430
 22
        6.56114
 32
        7.92480
 13
       15.35430
 23
        6.56114
 33
       10.66800
999
ACTIVESTORAGE_TOP_1 ZN:ACTIVESTORAGE_TOP_1_ZN_FLOOR
  0
3DFACE
  8
ACTIVESTORAGE_TOP_1_ZN
 62
  8
 10
       23.43150
 20
       11.04106
 30
        7.92480
 11
       23.43150
 21
        6.56114
 31
        7.92480
 12
       15.35430
 22
        6.56114
 32
        7.92480
 13
       15.35430
 23
       11.04106
 33
        7.92480
999
ACTIVESTORAGE_TOP_1 ZN:ACTIVESTORAGE_TOP_1_ZN_CEILING
  0
3DFACE
  8
ACTIVESTORAGE_TOP_1_ZN
 62
 15
 10
       15.35430
 20
       11.04106
 30
       10.66800
 11
       15.35430
 21
        6.56114
 31
       10.66800
 12
       23.43150
 22
        6.56114
 32
       10.66800
 13
       23.43150
 23
       11.04106
 33
       10.66800
999
ACTIVESTORAGE_TOP_2 ZN:ACTIVESTORAGE_TOP_2_ZN_WALL_EAST
  0
3DFACE
  8
ACTIVESTORAGE_TOP_2_ZN
 62
 43
 10
       33.67246
 20
        6.56114
 30
       10.66800
 11
       33.67246
 21
        6.56114
 31
        7.92480
 12
       33.67246
 22
       11.04106
 32
        7.92480
 13
       33.67246
 23
       11.04106
 33
       10.66800
999
ACTIVESTORAGE_TOP_2 ZN:ACTIVESTORAGE_TOP_2_ZN_WALL_NORTH_1
  0
3DFACE
  8
ACTIVESTORAGE_TOP_2_ZN
 62
 43
 10
       30.92926
 20
       11.04106
 30
       10.66800
 11
       30.92926
 21
       11.04106
 31
        7.92480
 12
       26.47950
 22
       11.04106
 32
        7.92480
 13
       26.47950
 23
       11.04106
 33
       10.66800
999
ACTIVESTORAGE_TOP_2 ZN:ACTIVESTORAGE_TOP_2_ZN_WALL_NORTH_2
  0
3DFACE
  8
ACTIVESTORAGE_TOP_2_ZN
 62
 43
 10
       33.67246
 20
       11.04106
 30
       10.66800
 11
       33.67246
 21
       11.04106
 31
        7.92480
 12
       30.92926
 22
       11.04106
 32
        7.92480
 13
       30.92926
 23
       11.04106
 33
       10.66800
999
ACTIVESTORAGE_TOP_2 ZN:ACTIVESTORAGE_TOP_2_ZN_WALL_SOUTH
  0
3DFACE
  8
ACTIVESTORAGE_TOP_2_ZN
 62
 43
 10
       26.47950
 20
        6.56114
 30
       10.66800
 11
       26.47950
 21
        6.56114
 31
        7.92480
 12
       33.67246
 22
        6.56114
 32
        7.92480
 13
       33.67246
 23
        6.56114
 33
       10.66800
999
ACTIVESTORAGE_TOP_2 ZN:ACTIVESTORAGE_TOP_2_ZN_WALL_WEST
  0
3DFACE
  8
ACTIVESTORAGE_TOP_2_ZN
 62
 43
 10
       26.47950
 20
       11.04106
 30
       10.66800
 11
       26.47950
 21
       11.04106
 31
        7.92480
 12
       26.47950
 22
        6.56114
 32
        7.92480
 13
       26.47950
 23
        6.56114
 33
       10.66800
999
ACTIVESTORAGE_TOP_2 ZN:ACTIVESTORAGE_TOP_2_ZN_FLOOR
  0
3DFACE
  8
ACTIVESTORAGE_TOP_2_ZN
 62
  8
 10
       33.67246
 20
       11.04106
 30
        7.92480
 11
       33.67246
 21
        6.56114
 31
        7.92480
 12
       26.47950
 22
        6.56114
 32
        7.92480
 13
       26.47950
 23
       11.04106
 33
        7.92480
999
ACTIVESTORAGE_TOP_2 ZN:ACTIVESTORAGE_TOP_2_ZN_CEILING
  0
3DFACE
  8
ACTIVESTORAGE_TOP_2_ZN
 62
 15
 10
       26.47950
 20
       11.04106
 30
       10.66800
 11
       26.47950
 21
        6.56114
 31
       10.66800
 12
       33.67246
 22
        6.56114
 32
       10.66800
 13
       33.67246
 23
       11.04106
 33
       10.66800
999
ACTIVESTORAGE_TOP_3 ZN:ACTIVESTORAGE_TOP_3_ZN_WALL_EAST
  0
3DFACE
  8
ACTIVESTORAGE_TOP_3_ZN
 62
 43
 10
       33.67246
 20
       22.23453
 30
       10.66800
 11
       33.67246
 21
       22.23453
 31
        7.92480
 12
       33.67246
 22
       26.71445
 32
        7.92480
 13
       33.67246
 23
       26.71445
 33
       10.66800
999
ACTIVESTORAGE_TOP_3 ZN:ACTIVESTORAGE_TOP_3_ZN_WALL_NORTH
  0
3DFACE
  8
ACTIVESTORAGE_TOP_3_ZN
 62
 43
 10
       33.67246
 20
       26.71445
 30
       10.66800
 11
       33.67246
 21
       26.71445
 31
        7.92480
 12
       26.47950
 22
       26.71445
 32
        7.92480
 13
       26.47950
 23
       26.71445
 33
       10.66800
999
ACTIVESTORAGE_TOP_3 ZN:ACTIVESTORAGE_TOP_3_ZN_WALL_SOUTH_1
  0
3DFACE
  8
ACTIVESTORAGE_TOP_3_ZN
 62
 43
 10
       30.92926
 20
       22.23453
 30
       10.66800
 11
       30.92926
 21
       22.23453
 31
        7.92480
 12
       33.67246
 22
       22.23453
 32
        7.92480
 13
       33.67246
 23
       22.23453
 33
       10.66800
999
ACTIVESTORAGE_TOP_3 ZN:ACTIVESTORAGE_TOP_3_ZN_WALL_SOUTH_2
  0
3DFACE
  8
ACTIVESTORAGE_TOP_3_ZN
 62
 43
 10
       26.47950
 20
       22.23453
 30
       10.66800
 11
       26.47950
 21
       22.23453
 31
        7.92480
 12
       30.92926
 22
       22.23453
 32
        7.92480
 13
       30.92926
 23
       22.23453
 33
       10.66800
999
ACTIVESTORAGE_TOP_3 ZN:ACTIVESTORAGE_TOP_3_ZN_WALL_WEST
  0
3DFACE
  8
ACTIVESTORAGE_TOP_3_ZN
 62
 43
 10
       26.47950
 20
       26.71445
 30
       10.66800
 11
       26.47950
 21
       26.71445
 31
        7.92480
 12
       26.47950
 22
       22.23453
 32
        7.92480
 13
       26.47950
 23
       22.23453
 33
       10.66800
999
ACTIVESTORAGE_TOP_3 ZN:ACTIVESTORAGE_TOP_3_ZN_FLOOR
  0
3DFACE
  8
ACTIVESTORAGE_TOP_3_ZN
 62
  8
 10
       33.67246
 20
       26.71445
 30
        7.92480
 11
       33.67246
 21
       22.23453
 31
        7.92480
 12
       26.47950
 22
       22.23453
 32
        7.92480
 13
       26.47950
 23
       26.71445
 33
        7.92480
999
ACTIVESTORAGE_TOP_3 ZN:ACTIVESTORAGE_TOP_3_ZN_CEILING
  0
3DFACE
  8
ACTIVESTORAGE_TOP_3_ZN
 62
 15
 10
       26.47950
 20
       26.71445
 30
       10.66800
 11
       26.47950
 21
       22.23453
 31
       10.66800
 12
       33.67246
 22
       22.23453
 32
       10.66800
 13
       33.67246
 23
       26.71445
 33
       10.66800
999
ACTIVESTORAGE_TOP_4 ZN:ACTIVESTORAGE_TOP_4_ZN_WALL_EAST
  0
3DFACE
  8
ACTIVESTORAGE_TOP_4_ZN
 62
 43
 10
       18.31023
 20
       22.23453
 30
       10.66800
 11
       18.31023
 21
       22.23453
 31
        7.92480
 12
       18.31023
 22
       26.71445
 32
        7.92480
 13
       18.31023
 23
       26.71445
 33
       10.66800
999
ACTIVESTORAGE_TOP_4 ZN:ACTIVESTORAGE_TOP_4_ZN_WALL_NORTH
  0
3DFACE
  8
ACTIVESTORAGE_TOP_4_ZN
 62
 43
 10
       18.31023
 20
       26.71445
 30
       10.66800
 11
       18.31023
 21
       26.71445
 31
        7.92480
 12
       15.35430
 22
       26.71445
 32
        7.92480
 13
       15.35430
 23
       26.71445
 33
       10.66800
999
ACTIVESTORAGE_TOP_4 ZN:ACTIVESTORAGE_TOP_4_ZN_WALL_SOUTH_1
  0
3DFACE
  8
ACTIVESTORAGE_TOP_4_ZN
 62
 43
 10
       18.09750
 20
       22.23453
 30
       10.66800
 11
       18.09750
 21
       22.23453
 31
        7.92480
 12
       18.31023
 22
       22.23453
 32
        7.92480
 13
       18.31023
 23
       22.23453
 33
       10.66800
999
ACTIVESTORAGE_TOP_4 ZN:ACTIVESTORAGE_TOP_4_ZN_WALL_SOUTH_2
  0
3DFACE
  8
ACTIVESTORAGE_TOP_4_ZN
 62
 43
 10
       15.35430
 20
       22.23453
 30
       10.66800
 11
       15.35430
 21
       22.23453
 31
        7.92480
 12
       18.09750
 22
       22.23453
 32
        7.92480
 13
       18.09750
 23
       22.23453
 33
       10.66800
999
ACTIVESTORAGE_TOP_4 ZN:ACTIVESTORAGE_TOP_4_ZN_WALL_WEST
  0
3DFACE
  8
ACTIVESTORAGE_TOP_4_ZN
 62
 43
 10
       15.35430
 20
       26.71445
 30
       10.66800
 11
       15.35430
 21
       26.71445
 31
        7.92480
 12
       15.35430
 22
       22.23453
 32
        7.92480
 13
       15.35430
 23
       22.23453
 33
       10.66800
999
ACTIVESTORAGE_TOP_4 ZN:ACTIVESTORAGE_TOP_4_ZN_FLOOR
  0
3DFACE
  8
ACTIVESTORAGE_TOP_4_ZN
 62
  8
 10
       18.31023
 20
       26.71445
 30
        7.92480
 11
       18.31023
 21
       22.23453
 31
        7.92480
 12
       15.35430
 22
       22.23453
 32
        7.92480
 13
       15.35430
 23
       26.71445
 33
        7.92480
999
ACTIVESTORAGE_TOP_4 ZN:ACTIVESTORAGE_TOP_4_ZN_CEILING
  0
3DFACE
  8
ACTIVESTORAGE_TOP_4_ZN
 62
 15
 10
       15.35430
 20
       26.71445
 30
       10.66800
 11
       15.35430
 21
       22.23453
 31
       10.66800
 12
       18.31023
 22
       22.23453
 32
       10.66800
 13
       18.31023
 23
       26.71445
 33
       10.66800
999
CLASSROOM_BOT ZN:CLASSROOM_BOT_ZN_WALL_EAST
  0
3DFACE
  8
CLASSROOM_BOT_ZN
 62
 43
 10
       10.08221
 20
       27.93365
 30
        2.74320
 11
       10.08221
 21
       27.93365
 31
        0.00000
 12
       10.08221
 22
       33.27400
 32
        0.00000
 13
       10.08221
 23
       33.27400
 33
        2.74320
999
CLASSROOM_BOT ZN:CLASSROOM_BOT_ZN_WALL_NORTH
  0
3DFACE
  8
CLASSROOM_BOT_ZN
 62
 43
 10
       10.08221
 20
       33.27400
 30
        2.74320
 11
       10.08221
 21
       33.27400
 31
        0.00000
 12
        4.50374
 22
       33.27400
 32
        0.00000
 13
        4.50374
 23
       33.27400
 33
        2.74320
999
CLASSROOM_BOT ZN:CLASSROOM_BOT_ZN_WALL_NORTH_WINDOW
  0
3DFACE
  8
CLASSROOM_BOT_ZN
 62
143
 10
       10.05681
 20
       33.27400
 30
        2.34088
 11
       10.05681
 21
       33.27400
 31
        1.02076
 12
        4.52914
 22
       33.27400
 32
        1.02076
 13
        4.52914
 23
       33.27400
 33
        2.34088
999
CLASSROOM_BOT ZN:CLASSROOM_BOT_ZN_WALL_SOUTH
  0
3DFACE
  8
CLASSROOM_BOT_ZN
 62
 43
 10
        4.50374
 20
       27.93365
 30
        2.74320
 11
        4.50374
 21
       27.93365
 31
        0.00000
 12
       10.08221
 22
       27.93365
 32
        0.00000
 13
       10.08221
 23
       27.93365
 33
        2.74320
999
CLASSROOM_BOT ZN:CLASSROOM_BOT_ZN_WALL_WEST
  0
3DFACE
  8
CLASSROOM_BOT_ZN
 62
 43
 10
        4.50374
 20
       33.27400
 30
        2.74320
 11
        4.50374
 21
       33.27400
 31
        0.00000
 12
        4.50374
 22
       27.93365
 32
        0.00000
 13
        4.50374
 23
       27.93365
 33
        2.74320
999
CLASSROOM_BOT ZN:CLASSROOM_BOT_ZN_FLOOR
  0
3DFACE
  8
CLASSROOM_BOT_ZN
 62
  8
 10
       10.08221
 20
       33.27400
 30
        0.00000
 11
       10.08221
 21
       27.93365
 31
        0.00000
 12
        4.50374
 22
       27.93365
 32
        0.00000
 13
        4.50374
 23
       33.27400
 33
        0.00000
999
CLASSROOM_BOT ZN:CLASSROOM_BOT_ZN_CEILING
  0
3DFACE
  8
CLASSROOM_BOT_ZN
 62
 15
 10
        4.50374
 20
       33.27400
 30
        2.74320
 11
        4.50374
 21
       27.93365
 31
        2.74320
 12
       10.08221
 22
       27.93365
 32
        2.74320
 13
       10.08221
 23
       33.27400
 33
        2.74320
999
CONFROOM_BOT_1 ZN:CONFROOM_BOT_1_ZN_WALL_EAST
  0
3DFACE
  8
CONFROOM_BOT_1_ZN
 62
 43
 10
        8.06926
 20
       -0.00000
 30
        2.74320
 11
        8.06926
 21
       -0.00000
 31
        0.00000
 12
        8.06926
 22
        5.34194
 32
        0.00000
 13
        8.06926
 23
        5.34194
 33
        2.74320
999
CONFROOM_BOT_1 ZN:CONFROOM_BOT_1_ZN_WALL_NORTH_1
  0
3DFACE
  8
CONFROOM_BOT_1_ZN
 62
 43
 10
        4.50374
 20
        5.34194
 30
        2.74320
 11
        4.50374
 21
        5.34194
 31
        0.00000
 12
        0.00000
 22
        5.34194
 32
        0.00000
 13
        0.00000
 23
        5.34194
 33
        2.74320
999
CONFROOM_BOT_1 ZN:CONFROOM_BOT_1_ZN_WALL_NORTH_2
  0
3DFACE
  8
CONFROOM_BOT_1_ZN
 62
 43
 10
        8.06926
 20
        5.34194
 30
        2.74320
 11
        8.06926
 21
        5.34194
 31
        0.00000
 12
        4.50374
 22
        5.34194
 32
        0.00000
 13
        4.50374
 23
        5.34194
 33
        2.74320
999
CONFROOM_BOT_1 ZN:CONFROOM_BOT_1_ZN_WALL_SOUTH
  0
3DFACE
  8
CONFROOM_BOT_1_ZN
 62
 43
 10
        0.00000
 20
       -0.00000
 30
        2.74320
 11
        0.00000
 21
       -0.00000
 31
        0.00000
 12
        8.06926
 22
       -0.00000
 32
        0.00000
 13
        8.06926
 23
       -0.00000
 33
        2.74320
999
CONFROOM_BOT_1 ZN:CONFROOM_BOT_1_ZN_WALL_SOUTH_WINDOW
  0
3DFACE
  8
CONFROOM_BOT_1_ZN
 62
143
 10
        0.02540
 20
       -0.00000
 30
        2.33715
 11
        0.02540
 21
       -0.00000
 31
        1.02076
 12
        8.04386
 22
       -0.00000
 32
        1.02076
 13
        8.04386
 23
       -0.00000
 33
        2.33715
999
CONFROOM_BOT_1 ZN:CONFROOM_BOT_1_ZN_WALL_WEST
  0
3DFACE
  8
CONFROOM_BOT_1_ZN
 62
 43
 10
        0.00000
 20
        5.34194
 30
        2.74320
 11
        0.00000
 21
        5.34194
 31
        0.00000
 12
        0.00000
 22
       -0.00000
 32
        0.00000
 13
        0.00000
 23
       -0.00000
 33
        2.74320
999
CONFROOM_BOT_1 ZN:CONFROOM_BOT_1_ZN_WALL_WEST_WINDOW
  0
3DFACE
  8
CONFROOM_BOT_1_ZN
 62
143
 10
        0.00000
 20
        5.31654
 30
        2.34142
 11
        0.00000
 21
        5.31654
 31
        1.02076
 12
        0.00000
 22
        0.02540
 32
        1.02076
 13
        0.00000
 23
        0.02540
 33
        2.34142
999
CONFROOM_BOT_1 ZN:CONFROOM_BOT_1_ZN_FLOOR
  0
3DFACE
  8
CONFROOM_BOT_1_ZN
 62
  8
 10
        8.06926
 20
        5.34194
 30
        0.00000
 11
        8.06926
 21
       -0.00000
 31
        0.00000
 12
        0.00000
 22
       -0.00000
 32
        0.00000
 13
        0.00000
 23
        5.34194
 33
        0.00000
999
CONFROOM_BOT_1 ZN:CONFROOM_BOT_1_ZN_CEILING
  0
3DFACE
  8
CONFROOM_BOT_1_ZN
 62
 15
 10
        0.00000
 20
        5.34194
 30
        2.74320
 11
        0.00000
 21
       -0.00000
 31
        2.74320
 12
        8.06926
 22
       -0.00000
 32
        2.74320
 13
        8.06926
 23
        5.34194
 33
        2.74320
999
CONFROOM_BOT_2 ZN:CONFROOM_BOT_2_ZN_WALL_EAST
  0
3DFACE
  8
CONFROOM_BOT_2_ZN
 62
 43
 10
       49.91100
 20
       -0.00000
 30
        2.74320
 11
       49.91100
 21
       -0.00000
 31
        0.00000
 12
       49.91100
 22
        5.34194
 32
        0.00000
 13
       49.91100
 23
        5.34194
 33
        2.74320
999
CONFROOM_BOT_2 ZN:CONFROOM_BOT_2_ZN_WALL_EAST_WINDOW
  0
3DFACE
  8
CONFROOM_BOT_2_ZN
 62
143
 10
       49.91100
 20
        0.02540
 30
        2.34142
 11
       49.91100
 21
        0.02540
 31
        1.02076
 12
       49.91100
 22
        5.31654
 32
        1.02076
 13
       49.91100
 23
        5.31654
 33
        2.34142
999
CONFROOM_BOT_2 ZN:CONFROOM_BOT_2_ZN_WALL_NORTH_1
  0
3DFACE
  8
CONFROOM_BOT_2_ZN
 62
 43
 10
       45.40726
 20
        5.34194
 30
        2.74320
 11
       45.40726
 21
        5.34194
 31
        0.00000
 12
       41.84174
 22
        5.34194
 32
        0.00000
 13
       41.84174
 23
        5.34194
 33
        2.74320
999
CONFROOM_BOT_2 ZN:CONFROOM_BOT_2_ZN_WALL_NORTH_2
  0
3DFACE
  8
CONFROOM_BOT_2_ZN
 62
 43
 10
       49.91100
 20
        5.34194
 30
        2.74320
 11
       49.91100
 21
        5.34194
 31
        0.00000
 12
       45.40726
 22
        5.34194
 32
        0.00000
 13
       45.40726
 23
        5.34194
 33
        2.74320
999
CONFROOM_BOT_2 ZN:CONFROOM_BOT_2_ZN_WALL_SOUTH
  0
3DFACE
  8
CONFROOM_BOT_2_ZN
 62
 43
 10
       41.84174
 20
       -0.00000
 30
        2.74320
 11
       41.84174
 21
       -0.00000
 31
        0.00000
 12
       49.91100
 22
       -0.00000
 32
        0.00000
 13
       49.91100
 23
       -0.00000
 33
        2.74320
999
CONFROOM_BOT_2 ZN:CONFROOM_BOT_2_ZN_WALL_SOUTH_WINDOW
  0
3DFACE
  8
CONFROOM_BOT_2_ZN
 62
143
 10
       41.86714
 20
       -0.00000
 30
        2.33715
 11
       41.86714
 21
       -0.00000
 31
        1.02076
 12
       49.88560
 22
       -0.00000
 32
        1.02076
 13
       49.88560
 23
       -0.00000
 33
        2.33715
999
CONFROOM_BOT_2 ZN:CONFROOM_BOT_2_ZN_WALL_WEST
  0
3DFACE
  8
CONFROOM_BOT_2_ZN
 62
 43
 10
       41.84174
 20
        5.34194
 30
        2.74320
 11
       41.84174
 21
        5.34194
 31
        0.00000
 12
       41.84174
 22
       -0.00000
 32
        0.00000
 13
       41.84174
 23
       -0.00000
 33
        2.74320
999
CONFROOM_BOT_2 ZN:CONFROOM_BOT_2_ZN_FLOOR
  0
3DFACE
  8
CONFROOM_BOT_2_ZN
 62
  8
 10
       49.91100
 20
        5.34194
 30
        0.00000
 11
       49.91100
 21
       -0.00000
 31
        0.00000
 12
       41.84174
 22
       -0.00000
 32
        0.00000
 13
       41.84174
 23
        5.34194
 33
        0.00000
999
CONFROOM_BOT_2 ZN:CONFROOM_BOT_2_ZN_CEILING
  0
3DFACE
  8
CONFROOM_BOT_2_ZN
 62
 15
 10
       41.84174
 20
        5.34194
 30
        2.74320
 11
       41.84174
 21
       -0.00000
 31
        2.74320
 12
       49.91100
 22
       -0.00000
 32
        2.74320
 13
       49.91100
 23
        5.34194
 33
        2.74320
999
CONFROOM_MID_1 ZN:CONFROOM_MID_1_ZN_WALL_EAST
  0
3DFACE
  8
CONFROOM_MID_1_ZN
 62
 43
 10
        8.06926
 20
       -0.00000
 30
        6.70560
 11
        8.06926
 21
       -0.00000
 31
        3.96240
 12
        8.06926
 22
        5.34194
 32
        3.96240
 13
        8.06926
 23
        5.34194
 33
        6.70560
999
CONFROOM_MID_1 ZN:CONFROOM_MID_1_ZN_WALL_NORTH_1
  0
3DFACE
  8
CONFROOM_MID_1_ZN
 62
 43
 10
        4.50374
 20
        5.34194
 30
        6.70560
 11
        4.50374
 21
        5.34194
 31
        3.96240
 12
        0.00000
 22
        5.34194
 32
        3.96240
 13
        0.00000
 23
        5.34194
 33
        6.70560
999
CONFROOM_MID_1 ZN:CONFROOM_MID_1_ZN_WALL_NORTH_2
  0
3DFACE
  8
CONFROOM_MID_1_ZN
 62
 43
 10
        8.06926
 20
        5.34194
 30
        6.70560
 11
        8.06926
 21
        5.34194
 31
        3.96240
 12
        4.50374
 22
        5.34194
 32
        3.96240
 13
        4.50374
 23
        5.34194
 33
        6.70560
999
CONFROOM_MID_1 ZN:CONFROOM_MID_1_ZN_WALL_SOUTH
  0
3DFACE
  8
CONFROOM_MID_1_ZN
 62
 43
 10
        0.00000
 20
       -0.00000
 30
        6.70560
 11
        0.00000
 21
       -0.00000
 31
        3.96240
 12
        8.06926
 22
       -0.00000
 32
        3.96240
 13
        8.06926
 23
       -0.00000
 33
        6.70560
999
CONFROOM_MID_1 ZN:CONFROOM_MID_1_ZN_WALL_SOUTH_WINDOW
  0
3DFACE
  8
CONFROOM_MID_1_ZN
 62
143
 10
        0.02540
 20
       -0.00000
 30
        6.29955
 11
        0.02540
 21
       -0.00000
 31
        4.98316
 12
        8.04386
 22
       -0.00000
 32
        4.98316
 13
        8.04386
 23
       -0.00000
 33
        6.29955
999
CONFROOM_MID_1 ZN:CONFROOM_MID_1_ZN_WALL_WEST
  0
3DFACE
  8
CONFROOM_MID_1_ZN
 62
 43
 10
        0.00000
 20
        5.34194
 30
        6.70560
 11
        0.00000
 21
        5.34194
 31
        3.96240
 12
        0.00000
 22
       -0.00000
 32
        3.96240
 13
        0.00000
 23
       -0.00000
 33
        6.70560
999
CONFROOM_MID_1 ZN:CONFROOM_MID_1_ZN_WALL_WEST_WINDOW
  0
3DFACE
  8
CONFROOM_MID_1_ZN
 62
143
 10
        0.00000
 20
        5.31654
 30
        6.30382
 11
        0.00000
 21
        5.31654
 31
        4.98316
 12
        0.00000
 22
        0.02540
 32
        4.98316
 13
        0.00000
 23
        0.02540
 33
        6.30382
999
CONFROOM_MID_1 ZN:CONFROOM_MID_1_ZN_FLOOR
  0
3DFACE
  8
CONFROOM_MID_1_ZN
 62
  8
 10
        8.06926
 20
        5.34194
 30
        3.96240
 11
        8.06926
 21
       -0.00000
 31
        3.96240
 12
        0.00000
 22
       -0.00000
 32
        3.96240
 13
        0.00000
 23
        5.34194
 33
        3.96240
999
CONFROOM_MID_1 ZN:CONFROOM_MID_1_ZN_CEILING
  0
3DFACE
  8
CONFROOM_MID_1_ZN
 62
 15
 10
        0.00000
 20
        5.34194
 30
        6.70560
 11
        0.00000
 21
       -0.00000
 31
        6.70560
 12
        8.06926
 22
       -0.00000
 32
        6.70560
 13
        8.06926
 23
        5.34194
 33
        6.70560
999
CONFROOM_MID_2 ZN:CONFROOM_MID_2_ZN_WALL_EAST
  0
3DFACE
  8
CONFROOM_MID_2_ZN
 62
 43
 10
       49.91100
 20
       -0.00000
 30
        6.70560
 11
       49.91100
 21
       -0.00000
 31
        3.96240
 12
       49.91100
 22
        5.34194
 32
        3.96240
 13
       49.91100
 23
        5.34194
 33
        6.70560
999
CONFROOM_MID_2 ZN:CONFROOM_MID_2_ZN_WALL_EAST_WINDOW
  0
3DFACE
  8
CONFROOM_MID_2_ZN
 62
143
 10
       49.91100
 20
        0.02540
 30
        6.30382
 11
       49.91100
 21
        0.02540
 31
        4.98316
 12
       49.91100
 22
        5.31654
 32
        4.98316
 13
       49.91100
 23
        5.31654
 33
        6.30382
999
CONFROOM_MID_2 ZN:CONFROOM_MID_2_ZN_WALL_NORTH_1
  0
3DFACE
  8
CONFROOM_MID_2_ZN
 62
 43
 10
       45.40726
 20
        5.34194
 30
        6.70560
 11
       45.40726
 21
        5.34194
 31
        3.96240
 12
       41.84174
 22
        5.34194
 32
        3.96240
 13
       41.84174
 23
        5.34194
 33
        6.70560
999
CONFROOM_MID_2 ZN:CONFROOM_MID_2_ZN_WALL_NORTH_2
  0
3DFACE
  8
CONFROOM_MID_2_ZN
 62
 43
 10
       49.91100
 20
        5.34194
 30
        6.70560
 11
       49.91100
 21
        5.34194
 31
        3.96240
 12
       45.40726
 22
        5.34194
 32
        3.96240
 13
       45.40726
 23
        5.34194
 33
        6.70560
999
CONFROOM_MID_2 ZN:CONFROOM_MID_2_ZN_WALL_SOUTH
  0
3DFACE
  8
CONFROOM_MID_2_ZN
 62
 43
 10
       41.84174
 20
       -0.00000
 30
        6.70560
 11
       41.84174
 21
       -0.00000
 31
        3.96240
 12
       49.91100
 22
       -0.00000
 32
        3.96240
 13
       49.91100
 23
       -0.00000
 33
        6.70560
999
CONFROOM_MID_2 ZN:CONFROOM_MID_2_ZN_WALL_SOUTH_WINDOW
  0
3DFACE
  8
CONFROOM_MID_2_ZN
 62
143
 10
       41.86714
 20
       -0.00000
 30
        6.29955
 11
       41.86714
 21
       -0.00000
 31
        4.98316
 12
       49.88560
 22
       -0.00000
 32
        4.98316
 13
       49.88560
 23
       -0.00000
 33
        6.29955
999
CONFROOM_MID_2 ZN:CONFROOM_MID_2_ZN_WALL_WEST
  0
3DFACE
  8
CONFROOM_MID_2_ZN
 62
 43
 10
       41.84174
 20
        5.34194
 30
        6.70560
 11
       41.84174
 21
        5.34194
 31
        3.96240
 12
       41.84174
 22
       -0.00000
 32
        3.96240
 13
       41.84174
 23
       -0.00000
 33
        6.70560
999
CONFROOM_MID_2 ZN:CONFROOM_MID_2_ZN_FLOOR
  0
3DFACE
  8
CONFROOM_MID_2_ZN
 62
  8
 10
       49.91100
 20
        5.34194
 30
        3.96240
 11
       49.91100
 21
       -0.00000
 31
        3.96240
 12
       41.84174
 22
       -0.00000
 32
        3.96240
 13
       41.84174
 23
        5.34194
 33
        3.96240
999
CONFROOM_MID_2 ZN:CONFROOM_MID_2_ZN_CEILING
  0
3DFACE
  8
CONFROOM_MID_2_ZN
 62
 15
 10
       41.84174
 20
        5.34194
 30
        6.70560
 11
       41.84174
 21
       -0.00000
 31
        6.70560
 12
       49.91100
 22
       -0.00000
 32
        6.70560
 13
       49.91100
 23
        5.34194
 33
        6.70560
999
CONFROOM_TOP_1 ZN:CONFROOM_TOP_1_ZN_WALL_EAST
  0
3DFACE
  8
CONFROOM_TOP_1_ZN
 62
 43
 10
        8.06926
 20
        0.00000
 30
       10.66800
 11
        8.06926
 21
        0.00000
 31
        7.92480
 12
        8.06926
 22
        5.34194
 32
        7.92480
 13
        8.06926
 23
        5.34194
 33
       10.66800
999
CONFROOM_TOP_1 ZN:CONFROOM_TOP_1_ZN_WALL_NORTH_1
  0
3DFACE
  8
CONFROOM_TOP_1_ZN
 62
 43
 10
        8.06926
 20
        5.34194
 30
       10.66800
 11
        8.06926
 21
        5.34194
 31
        7.92480
 12
        4.50374
 22
        5.34194
 32
        7.92480
 13
        4.50374
 23
        5.34194
 33
       10.66800
999
CONFROOM_TOP_1 ZN:CONFROOM_TOP_1_ZN_WALL_NORTH_2
  0
3DFACE
  8
CONFROOM_TOP_1_ZN
 62
 43
 10
        4.50374
 20
        5.34194
 30
       10.66800
 11
        4.50374
 21
        5.34194
 31
        7.92480
 12
        0.00000
 22
        5.34194
 32
        7.92480
 13
        0.00000
 23
        5.34194
 33
       10.66800
999
CONFROOM_TOP_1 ZN:CONFROOM_TOP_1_ZN_WALL_SOUTH
  0
3DFACE
  8
CONFROOM_TOP_1_ZN
 62
 43
 10
        0.00000
 20
        0.00000
 30
       10.66800
 11
        0.00000
 21
        0.00000
 31
        7.92480
 12
        8.06926
 22
        0.00000
 32
        7.92480
 13
        8.06926
 23
        0.00000
 33
       10.66800
999
CONFROOM_TOP_1 ZN:CONFROOM_TOP_1_ZN_WALL_SOUTH_WINDOW
  0
3DFACE
  8
CONFROOM_TOP_1_ZN
 62
143
 10
        0.02540
 20
        0.00000
 30
       10.26195
 11
        0.02540
 21
        0.00000
 31
        8.94556
 12
        8.04386
 22
        0.00000
 32
        8.94556
 13
        8.04386
 23
        0.00000
 33
       10.26195
999
CONFROOM_TOP_1 ZN:CONFROOM_TOP_1_ZN_WALL_WEST
  0
3DFACE
  8
CONFROOM_TOP_1_ZN
 62
 43
 10
        0.00000
 20
        5.34194
 30
       10.66800
 11
        0.00000
 21
        5.34194
 31
        7.92480
 12
        0.00000
 22
        0.00000
 32
        7.92480
 13
        0.00000
 23
        0.00000
 33
       10.66800
999
CONFROOM_TOP_1 ZN:CONFROOM_TOP_1_ZN_WALL_WEST_WINDOW
  0
3DFACE
  8
CONFROOM_TOP_1_ZN
 62
143
 10
        0.00000
 20
        5.31654
 30
       10.26622
 11
        0.00000
 21
        5.31654
 31
        8.94556
 12
        0.00000
 22
        0.02540
 32
        8.94556
 13
        0.00000
 23
        0.02540
 33
       10.26622
999
CONFROOM_TOP_1 ZN:CONFROOM_TOP_1_ZN_FLOOR
  0
3DFACE
  8
CONFROOM_TOP_1_ZN
 62
  8
 10
        8.06926
 20
        5.34194
 30
        7.92480
 11
        8.06926
 21
        0.00000
 31
        7.92480
 12
        0.00000
 22
        0.00000
 32
        7.92480
 13
        0.00000
 23
        5.34194
 33
        7.92480
999
CONFROOM_TOP_1 ZN:CONFROOM_TOP_1_ZN_CEILING
  0
3DFACE
  8
CONFROOM_TOP_1_ZN
 62
 15
 10
        0.00000
 20
        5.34194
 30
       10.66800
 11
        0.00000
 21
        0.00000
 31
       10.66800
 12
        8.06926
 22
        0.00000
 32
       10.66800
 13
        8.06926
 23
        5.34194
 33
       10.66800
999
CONFROOM_TOP_2 ZN:CONFROOM_TOP_2_ZN_WALL_EAST
  0
3DFACE
  8
CONFROOM_TOP_2_ZN
 62
 43
 10
       49.91100
 20
        0.00000
 30
       10.66800
 11
       49.91100
 21
        0.00000
 31
        7.92480
 12
       49.91100
 22
        5.34194
 32
        7.92480
 13
       49.91100
 23
        5.34194
 33
       10.66800
999
CONFROOM_TOP_2 ZN:CONFROOM_TOP_2_ZN_WALL_EAST_WINDOW
  0
3DFACE
  8
CONFROOM_TOP_2_ZN
 62
143
 10
       49.91100
 20
        0.02540
 30
       10.26622
 11
       49.91100
 21
        0.02540
 31
        8.94556
 12
       49.91100
 22
        5.31654
 32
        8.94556
 13
       49.91100
 23
        5.31654
 33
       10.26622
999
CONFROOM_TOP_2 ZN:CONFROOM_TOP_2_ZN_WALL_NORTH_1
  0
3DFACE
  8
CONFROOM_TOP_2_ZN
 62
 43
 10
       45.40726
 20
        5.34194
 30
       10.66800
 11
       45.40726
 21
        5.34194
 31
        7.92480
 12
       41.84174
 22
        5.34194
 32
        7.92480
 13
       41.84174
 23
        5.34194
 33
       10.66800
999
CONFROOM_TOP_2 ZN:CONFROOM_TOP_2_ZN_WALL_NORTH_2
  0
3DFACE
  8
CONFROOM_TOP_2_ZN
 62
 43
 10
       49.91100
 20
        5.34194
 30
       10.66800
 11
       49.91100
 21
        5.34194
 31
        7.92480
 12
       45.40726
 22
        5.34194
 32
        7.92480
 13
       45.40726
 23
        5.34194
 33
       10.66800
999
CONFROOM_TOP_2 ZN:CONFROOM_TOP_2_ZN_WALL_SOUTH
  0
3DFACE
  8
CONFROOM_TOP_2_ZN
 62
 43
 10
       41.84174
 20
        0.00000
 30
       10.66800
 11
       41.84174
 21
        0.00000
 31
        7.92480
 12
       49.91100
 22
        0.00000
 32
        7.92480
 13
       49.91100
 23
        0.00000
 33
       10.66800
999
CONFROOM_TOP_2 ZN:CONFROOM_TOP_2_ZN_WALL_SOUTH_WINDOW
  0
3DFACE
  8
CONFROOM_TOP_2_ZN
 62
143
 10
       41.86714
 20
        0.00000
 30
       10.26195
 11
       41.86714
 21
        0.00000
 31
        8.94556
 12
       49.88560
 22
        0.00000
 32
        8.94556
 13
       49.88560
 23
        0.00000
 33
       10.26195
999
CONFROOM_TOP_2 ZN:CONFROOM_TOP_2_ZN_WALL_WEST
  0
3DFACE
  8
CONFROOM_TOP_2_ZN
 62
 43
 10
       41.84174
 20
        5.34194
 30
       10.66800
 11
       41.84174
 21
        5.34194
 31
        7.92480
 12
       41.84174
 22
        0.00000
 32
        7.92480
 13
       41.84174
 23
        0.00000
 33
       10.66800
999
CONFROOM_TOP_2 ZN:CONFROOM_TOP_2_ZN_FLOOR
  0
3DFACE
  8
CONFROOM_TOP_2_ZN
 62
  8
 10
       49.91100
 20
        5.34194
 30
        7.92480
 11
       49.91100
 21
        0.00000
 31
        7.92480
 12
       41.84174
 22
        0.00000
 32
        7.92480
 13
       41.84174
 23
        5.34194
 33
        7.92480
999
CONFROOM_TOP_2 ZN:CONFROOM_TOP_2_ZN_CEILING
  0
3DFACE
  8
CONFROOM_TOP_2_ZN
 62
 15
 10
       41.84174
 20
        5.34194
 30
       10.66800
 11
       41.84174
 21
        0.00000
 31
       10.66800
 12
       49.91100
 22
        0.00000
 32
       10.66800
 13
       49.91100
 23
        5.34194
 33
       10.66800
999
CORRIDOR_BOT_1 ZN:CORRIDOR_BOT_1_ZN_WALL_EAST_1
  0
3DFACE
  8
CORRIDOR_BOT_1_ZN
 62
 43
 10
        5.72294
 20
        6.56114
 30
        2.74320
 11
        5.72294
 21
        6.56114
 31
        0.00000
 12
        5.72294
 22
       16.63779
 32
        0.00000
 13
        5.72294
 23
       16.63779
 33
        2.74320
999
CORRIDOR_BOT_1 ZN:CORRIDOR_BOT_1_ZN_WALL_EAST_2
  0
3DFACE
  8
CORRIDOR_BOT_1_ZN
 62
 43
 10
       45.40726
 20
        5.34194
 30
        2.74320
 11
       45.40726
 21
        5.34194
 31
        0.00000
 12
       45.40726
 22
       12.33779
 32
        0.00000
 13
       45.40726
 23
       12.33779
 33
        2.74320
999
CORRIDOR_BOT_1 ZN:CORRIDOR_BOT_1_ZN_WALL_EAST_3
  0
3DFACE
  8
CORRIDOR_BOT_1_ZN
 62
 43
 10
       45.40726
 20
       12.33779
 30
        2.74320
 11
       45.40726
 21
       12.33779
 31
        0.00000
 12
       45.40726
 22
       16.63779
 32
        0.00000
 13
       45.40726
 23
       16.63779
 33
        2.74320
999
CORRIDOR_BOT_1 ZN:CORRIDOR_BOT_1_ZN_WALL_NORTH_1
  0
3DFACE
  8
CORRIDOR_BOT_1_ZN
 62
 43
 10
       23.43150
 20
        6.56114
 30
        2.74320
 11
       23.43150
 21
        6.56114
 31
        0.00000
 12
       15.35430
 22
        6.56114
 32
        0.00000
 13
       15.35430
 23
        6.56114
 33
        2.74320
999
CORRIDOR_BOT_1 ZN:CORRIDOR_BOT_1_ZN_WALL_NORTH_2
  0
3DFACE
  8
CORRIDOR_BOT_1_ZN
 62
 43
 10
       33.67246
 20
        6.56114
 30
        2.74320
 11
       33.67246
 21
        6.56114
 31
        0.00000
 12
       26.47950
 22
        6.56114
 32
        0.00000
 13
       26.47950
 23
        6.56114
 33
        2.74320
999
CORRIDOR_BOT_1 ZN:CORRIDOR_BOT_1_ZN_WALL_NORTH_3
  0
3DFACE
  8
CORRIDOR_BOT_1_ZN
 62
 43
 10
       15.35430
 20
        6.56114
 30
        2.74320
 11
       15.35430
 21
        6.56114
 31
        0.00000
 12
        5.72294
 22
        6.56114
 32
        0.00000
 13
        5.72294
 23
        6.56114
 33
        2.74320
999
CORRIDOR_BOT_1 ZN:CORRIDOR_BOT_1_ZN_WALL_NORTH_4
  0
3DFACE
  8
CORRIDOR_BOT_1_ZN
 62
 43
 10
       26.47950
 20
        6.56114
 30
        2.74320
 11
       26.47950
 21
        6.56114
 31
        0.00000
 12
       23.43150
 22
        6.56114
 32
        0.00000
 13
       23.43150
 23
        6.56114
 33
        2.74320
999
CORRIDOR_BOT_1 ZN:CORRIDOR_BOT_1_ZN_WALL_NORTH_5
  0
3DFACE
  8
CORRIDOR_BOT_1_ZN
 62
 43
 10
        5.72294
 20
       16.63779
 30
        2.74320
 11
        5.72294
 21
       16.63779
 31
        0.00000
 12
        4.50374
 22
       16.63779
 32
        0.00000
 13
        4.50374
 23
       16.63779
 33
        2.74320
999
CORRIDOR_BOT_1 ZN:CORRIDOR_BOT_1_ZN_WALL_NORTH_6
  0
3DFACE
  8
CORRIDOR_BOT_1_ZN
 62
 43
 10
       44.18806
 20
        6.56114
 30
        2.74320
 11
       44.18806
 21
        6.56114
 31
        0.00000
 12
       33.67246
 22
        6.56114
 32
        0.00000
 13
       33.67246
 23
        6.56114
 33
        2.74320
999
CORRIDOR_BOT_1 ZN:CORRIDOR_BOT_1_ZN_WALL_NORTH_7
  0
3DFACE
  8
CORRIDOR_BOT_1_ZN
 62
 43
 10
       45.40726
 20
       16.63779
 30
        2.74320
 11
       45.40726
 21
       16.63779
 31
        0.00000
 12
       44.18806
 22
       16.63779
 32
        0.00000
 13
       44.18806
 23
       16.63779
 33
        2.74320
999
CORRIDOR_BOT_1 ZN:CORRIDOR_BOT_1_ZN_WALL_SOUTH_1
  0
3DFACE
  8
CORRIDOR_BOT_1_ZN
 62
 43
 10
       33.33750
 20
        5.34194
 30
        2.74320
 11
       33.33750
 21
        5.34194
 31
        0.00000
 12
       41.84174
 22
        5.34194
 32
        0.00000
 13
       41.84174
 23
        5.34194
 33
        2.74320
999
CORRIDOR_BOT_1 ZN:CORRIDOR_BOT_1_ZN_WALL_SOUTH_2
  0
3DFACE
  8
CORRIDOR_BOT_1_ZN
 62
 43
 10
       16.57350
 20
        5.34194
 30
        2.74320
 11
       16.57350
 21
        5.34194
 31
        0.00000
 12
       33.33750
 22
        5.34194
 32
        0.00000
 13
       33.33750
 23
        5.34194
 33
        2.74320
999
CORRIDOR_BOT_1 ZN:CORRIDOR_BOT_1_ZN_WALL_SOUTH_3
  0
3DFACE
  8
CORRIDOR_BOT_1_ZN
 62
 43
 10
        4.50374
 20
        5.34194
 30
        2.74320
 11
        4.50374
 21
        5.34194
 31
        0.00000
 12
        8.06926
 22
        5.34194
 32
        0.00000
 13
        8.06926
 23
        5.34194
 33
        2.74320
999
CORRIDOR_BOT_1 ZN:CORRIDOR_BOT_1_ZN_WALL_SOUTH_4
  0
3DFACE
  8
CORRIDOR_BOT_1_ZN
 62
 43
 10
       41.84174
 20
        5.34194
 30
        2.74320
 11
       41.84174
 21
        5.34194
 31
        0.00000
 12
       45.40726
 22
        5.34194
 32
        0.00000
 13
       45.40726
 23
        5.34194
 33
        2.74320
999
CORRIDOR_BOT_1 ZN:CORRIDOR_BOT_1_ZN_WALL_SOUTH_5
  0
3DFACE
  8
CORRIDOR_BOT_1_ZN
 62
 43
 10
        8.06926
 20
        5.34194
 30
        2.74320
 11
        8.06926
 21
        5.34194
 31
        0.00000
 12
       16.57350
 22
        5.34194
 32
        0.00000
 13
       16.57350
 23
        5.34194
 33
        2.74320
999
CORRIDOR_BOT_1 ZN:CORRIDOR_BOT_1_ZN_WALL_WEST_1
  0
3DFACE
  8
CORRIDOR_BOT_1_ZN
 62
 43
 10
       44.18806
 20
       16.63779
 30
        2.74320
 11
       44.18806
 21
       16.63779
 31
        0.00000
 12
       44.18806
 22
        6.56114
 32
        0.00000
 13
       44.18806
 23
        6.56114
 33
        2.74320
999
CORRIDOR_BOT_1 ZN:CORRIDOR_BOT_1_ZN_WALL_WEST_2
  0
3DFACE
  8
CORRIDOR_BOT_1_ZN
 62
 43
 10
        4.50374
 20
       12.32779
 30
        2.74320
 11
        4.50374
 21
       12.32779
 31
        0.00000
 12
        4.50374
 22
        5.34194
 32
        0.00000
 13
        4.50374
 23
        5.34194
 33
        2.74320
999
CORRIDOR_BOT_1 ZN:CORRIDOR_BOT_1_ZN_WALL_WEST_3
  0
3DFACE
  8
CORRIDOR_BOT_1_ZN
 62
 43
 10
        4.50374
 20
       16.63779
 30
        2.74320
 11
        4.50374
 21
       16.63779
 31
        0.00000
 12
        4.50374
 22
       12.32779
 32
        0.00000
 13
        4.50374
 23
       12.32779
 33
        2.74320
999
CORRIDOR_BOT_1 ZN:CORRIDOR_BOT_1_ZN_FLOOR
  0
3DFACE
  8
CORRIDOR_BOT_1_ZN
 62
  8
 10
        4.50374
 20
        5.34194
 30
        0.00000
 11
        4.50374
 21
       16.63779
 31
        0.00000
 12
        5.72294
 22
       16.63779
 32
        0.00000
 13
        5.72294
 23
       16.63779
 33
        0.00000
  0
3DFACE
  8
CORRIDOR_BOT_1_ZN
 62
  8
 10
        4.50374
 20
        5.34194
 30
        0.00000
 11
        5.72294
 21
       16.63779
 31
        0.00000
 12
        5.72294
 22
        6.56114
 32
        0.00000
 13
        5.72294
 23
        6.56114
 33
        0.00000
  0
3DFACE
  8
CORRIDOR_BOT_1_ZN
 62
  8
 10
        4.50374
 20
        5.34194
 30
        0.00000
 11
        5.72294
 21
        6.56114
 31
        0.00000
 12
       44.18806
 22
        6.56114
 32
        0.00000
 13
       44.18806
 23
        6.56114
 33
        0.00000
  0
3DFACE
  8
CORRIDOR_BOT_1_ZN
 62
  8
 10
       44.18806
 20
        6.56114
 30
        0.00000
 11
       44.18806
 21
       16.63779
 31
        0.00000
 12
       45.40726
 22
       16.63779
 32
        0.00000
 13
       45.40726
 23
       16.63779
 33
        0.00000
999
CORRIDOR_BOT_1 ZN:CORRIDOR_BOT_1_ZN_CEILING
  0
3DFACE
  8
CORRIDOR_BOT_1_ZN
 62
 15
 10
       45.40726
 20
        5.34194
 30
        2.74320
 11
       45.40726
 21
       16.63779
 31
        2.74320
 12
       44.18806
 22
       16.63779
 32
        2.74320
 13
       44.18806
 23
       16.63779
 33
        2.74320
  0
3DFACE
  8
CORRIDOR_BOT_1_ZN
 62
 15
 10
       45.40726
 20
        5.34194
 30
        2.74320
 11
       44.18806
 21
       16.63779
 31
        2.74320
 12
       44.18806
 22
        6.56114
 32
        2.74320
 13
       44.18806
 23
        6.56114
 33
        2.74320
  0
3DFACE
  8
CORRIDOR_BOT_1_ZN
 62
 15
 10
        4.50374
 20
        5.34194
 30
        2.74320
 11
       45.40726
 21
        5.34194
 31
        2.74320
 12
       44.18806
 22
        6.56114
 32
        2.74320
 13
       44.18806
 23
        6.56114
 33
        2.74320
  0
3DFACE
  8
CORRIDOR_BOT_1_ZN
 62
 15
 10
        4.50374
 20
        5.34194
 30
        2.74320
 11
       44.18806
 21
        6.56114
 31
        2.74320
 12
        5.72294
 22
        6.56114
 32
        2.74320
 13
        5.72294
 23
        6.56114
 33
        2.74320
  0
3DFACE
  8
CORRIDOR_BOT_1_ZN
 62
 15
 10
        4.50374
 20
       16.63779
 30
        2.74320
 11
        4.50374
 21
        5.34194
 31
        2.74320
 12
        5.72294
 22
        6.56114
 32
        2.74320
 13
        5.72294
 23
        6.56114
 33
        2.74320
  0
3DFACE
  8
CORRIDOR_BOT_1_ZN
 62
 15
 10
        4.50374
 20
       16.63779
 30
        2.74320
 11
        5.72294
 21
        6.56114
 31
        2.74320
 12
        5.72294
 22
       16.63779
 32
        2.74320
 13
        5.72294
 23
       16.63779
 33
        2.74320
999
CORRIDOR_BOT_2 ZN:CORRIDOR_BOT_2_ZN_WALL_EAST_1
  0
3DFACE
  8
CORRIDOR_BOT_2_ZN
 62
 43
 10
       45.40726
 20
       16.63779
 30
        2.74320
 11
       45.40726
 21
       16.63779
 31
        0.00000
 12
       45.40726
 22
       19.31779
 32
        0.00000
 13
       45.40726
 23
       19.31779
 33
        2.74320
999
CORRIDOR_BOT_2 ZN:CORRIDOR_BOT_2_ZN_WALL_EAST_2
  0
3DFACE
  8
CORRIDOR_BOT_2_ZN
 62
 43
 10
        5.72294
 20
       16.63779
 30
        2.74320
 11
        5.72294
 21
       16.63779
 31
        0.00000
 12
        5.72294
 22
       26.71445
 32
        0.00000
 13
        5.72294
 23
       26.71445
 33
        2.74320
999
CORRIDOR_BOT_2 ZN:CORRIDOR_BOT_2_ZN_WALL_EAST_3
  0
3DFACE
  8
CORRIDOR_BOT_2_ZN
 62
 43
 10
       45.40726
 20
       26.29365
 30
        2.74320
 11
       45.40726
 21
       26.29365
 31
        0.00000
 12
       45.40726
 22
       27.93365
 32
        0.00000
 13
       45.40726
 23
       27.93365
 33
        2.74320
999
CORRIDOR_BOT_2 ZN:CORRIDOR_BOT_2_ZN_WALL_EAST_4
  0
3DFACE
  8
CORRIDOR_BOT_2_ZN
 62
 43
 10
       45.40726
 20
       19.31779
 30
        2.74320
 11
       45.40726
 21
       19.31779
 31
        0.00000
 12
       45.40726
 22
       26.29365
 32
        0.00000
 13
       45.40726
 23
       26.29365
 33
        2.74320
999
CORRIDOR_BOT_2 ZN:CORRIDOR_BOT_2_ZN_WALL_NORTH_1
  0
3DFACE
  8
CORRIDOR_BOT_2_ZN
 62
 43
 10
       45.40726
 20
       27.93365
 30
        2.74320
 11
       45.40726
 21
       27.93365
 31
        0.00000
 12
       10.08221
 22
       27.93365
 32
        0.00000
 13
       10.08221
 23
       27.93365
 33
        2.74320
999
CORRIDOR_BOT_2 ZN:CORRIDOR_BOT_2_ZN_WALL_NORTH_2
  0
3DFACE
  8
CORRIDOR_BOT_2_ZN
 62
 43
 10
       10.08221
 20
       27.93365
 30
        2.74320
 11
       10.08221
 21
       27.93365
 31
        0.00000
 12
        4.50374
 22
       27.93365
 32
        0.00000
 13
        4.50374
 23
       27.93365
 33
        2.74320
999
CORRIDOR_BOT_2 ZN:CORRIDOR_BOT_2_ZN_WALL_SOUTH_1
  0
3DFACE
  8
CORRIDOR_BOT_2_ZN
 62
 43
 10
        4.50374
 20
       16.63779
 30
        2.74320
 11
        4.50374
 21
       16.63779
 31
        0.00000
 12
        5.72294
 22
       16.63779
 32
        0.00000
 13
        5.72294
 23
       16.63779
 33
        2.74320
999
CORRIDOR_BOT_2 ZN:CORRIDOR_BOT_2_ZN_WALL_SOUTH_2
  0
3DFACE
  8
CORRIDOR_BOT_2_ZN
 62
 43
 10
       18.31022
 20
       26.71445
 30
        2.74320
 11
       18.31022
 21
       26.71445
 31
        0.00000
 12
       23.43150
 22
       26.71445
 32
        0.00000
 13
       23.43150
 23
       26.71445
 33
        2.74320
999
CORRIDOR_BOT_2 ZN:CORRIDOR_BOT_2_ZN_WALL_SOUTH_3
  0
3DFACE
  8
CORRIDOR_BOT_2_ZN
 62
 43
 10
        5.72294
 20
       26.71445
 30
        2.74320
 11
        5.72294
 21
       26.71445
 31
        0.00000
 12
       15.35430
 22
       26.71445
 32
        0.00000
 13
       15.35430
 23
       26.71445
 33
        2.74320
999
CORRIDOR_BOT_2 ZN:CORRIDOR_BOT_2_ZN_WALL_SOUTH_4
  0
3DFACE
  8
CORRIDOR_BOT_2_ZN
 62
 43
 10
       44.18806
 20
       16.63779
 30
        2.74320
 11
       44.18806
 21
       16.63779
 31
        0.00000
 12
       45.40726
 22
       16.63779
 32
        0.00000
 13
       45.40726
 23
       16.63779
 33
        2.74320
999
CORRIDOR_BOT_2 ZN:CORRIDOR_BOT_2_ZN_WALL_SOUTH_5
  0
3DFACE
  8
CORRIDOR_BOT_2_ZN
 62
 43
 10
       15.35430
 20
       26.71445
 30
        2.74320
 11
       15.35430
 21
       26.71445
 31
        0.00000
 12
       18.31022
 22
       26.71445
 32
        0.00000
 13
       18.31022
 23
       26.71445
 33
        2.74320
999
CORRIDOR_BOT_2 ZN:CORRIDOR_BOT_2_ZN_WALL_SOUTH_6
  0
3DFACE
  8
CORRIDOR_BOT_2_ZN
 62
 43
 10
       33.67246
 20
       26.71445
 30
        2.74320
 11
       33.67246
 21
       26.71445
 31
        0.00000
 12
       44.18806
 22
       26.71445
 32
        0.00000
 13
       44.18806
 23
       26.71445
 33
        2.74320
999
CORRIDOR_BOT_2 ZN:CORRIDOR_BOT_2_ZN_WALL_SOUTH_7
  0
3DFACE
  8
CORRIDOR_BOT_2_ZN
 62
 43
 10
       23.43150
 20
       26.71445
 30
        2.74320
 11
       23.43150
 21
       26.71445
 31
        0.00000
 12
       26.47950
 22
       26.71445
 32
        0.00000
 13
       26.47950
 23
       26.71445
 33
        2.74320
999
CORRIDOR_BOT_2 ZN:CORRIDOR_BOT_2_ZN_WALL_SOUTH_8
  0
3DFACE
  8
CORRIDOR_BOT_2_ZN
 62
 43
 10
       26.47950
 20
       26.71445
 30
        2.74320
 11
       26.47950
 21
       26.71445
 31
        0.00000
 12
       33.67246
 22
       26.71445
 32
        0.00000
 13
       33.67246
 23
       26.71445
 33
        2.74320
999
CORRIDOR_BOT_2 ZN:CORRIDOR_BOT_2_ZN_WALL_WEST_1
  0
3DFACE
  8
CORRIDOR_BOT_2_ZN
 62
 43
 10
        4.50374
 20
       27.93365
 30
        2.74320
 11
        4.50374
 21
       27.93365
 31
        0.00000
 12
        4.50374
 22
       26.29365
 32
        0.00000
 13
        4.50374
 23
       26.29365
 33
        2.74320
999
CORRIDOR_BOT_2 ZN:CORRIDOR_BOT_2_ZN_WALL_WEST_2
  0
3DFACE
  8
CORRIDOR_BOT_2_ZN
 62
 43
 10
       44.18806
 20
       26.71445
 30
        2.74320
 11
       44.18806
 21
       26.71445
 31
        0.00000
 12
       44.18806
 22
       16.63779
 32
        0.00000
 13
       44.18806
 23
       16.63779
 33
        2.74320
999
CORRIDOR_BOT_2 ZN:CORRIDOR_BOT_2_ZN_WALL_WEST_3
  0
3DFACE
  8
CORRIDOR_BOT_2_ZN
 62
 43
 10
        4.50374
 20
       26.29365
 30
        2.74320
 11
        4.50374
 21
       26.29365
 31
        0.00000
 12
        4.50374
 22
       19.30779
 32
        0.00000
 13
        4.50374
 23
       19.30779
 33
        2.74320
999
CORRIDOR_BOT_2 ZN:CORRIDOR_BOT_2_ZN_WALL_WEST_4
  0
3DFACE
  8
CORRIDOR_BOT_2_ZN
 62
 43
 10
        4.50374
 20
       19.30779
 30
        2.74320
 11
        4.50374
 21
       19.30779
 31
        0.00000
 12
        4.50374
 22
       16.63779
 32
        0.00000
 13
        4.50374
 23
       16.63779
 33
        2.74320
999
CORRIDOR_BOT_2 ZN:CORRIDOR_BOT_2_ZN_FLOOR
  0
3DFACE
  8
CORRIDOR_BOT_2_ZN
 62
  8
 10
       45.40726
 20
       27.93365
 30
        0.00000
 11
       45.40726
 21
       16.63779
 31
        0.00000
 12
       44.18806
 22
       16.63779
 32
        0.00000
 13
       44.18806
 23
       16.63779
 33
        0.00000
  0
3DFACE
  8
CORRIDOR_BOT_2_ZN
 62
  8
 10
       45.40726
 20
       27.93365
 30
        0.00000
 11
       44.18806
 21
       16.63779
 31
        0.00000
 12
       44.18806
 22
       26.71445
 32
        0.00000
 13
       44.18806
 23
       26.71445
 33
        0.00000
  0
3DFACE
  8
CORRIDOR_BOT_2_ZN
 62
  8
 10
       45.40726
 20
       27.93365
 30
        0.00000
 11
       44.18806
 21
       26.71445
 31
        0.00000
 12
        5.72294
 22
       26.71445
 32
        0.00000
 13
        5.72294
 23
       26.71445
 33
        0.00000
  0
3DFACE
  8
CORRIDOR_BOT_2_ZN
 62
  8
 10
        5.72294
 20
       26.71445
 30
        0.00000
 11
        5.72294
 21
       16.63779
 31
        0.00000
 12
        4.50374
 22
       16.63779
 32
        0.00000
 13
        4.50374
 23
       16.63779
 33
        0.00000
  0
3DFACE
  8
CORRIDOR_BOT_2_ZN
 62
  8
 10
        5.72294
 20
       26.71445
 30
        0.00000
 11
        4.50374
 21
       16.63779
 31
        0.00000
 12
        4.50374
 22
       27.93365
 32
        0.00000
 13
        4.50374
 23
       27.93365
 33
        0.00000
  0
3DFACE
  8
CORRIDOR_BOT_2_ZN
 62
  8
 10
       45.40726
 20
       27.93365
 30
        0.00000
 11
        5.72294
 21
       26.71445
 31
        0.00000
 12
        4.50374
 22
       27.93365
 32
        0.00000
 13
        4.50374
 23
       27.93365
 33
        0.00000
999
CORRIDOR_BOT_2 ZN:CORRIDOR_BOT_2_ZN_CEILING
  0
3DFACE
  8
CORRIDOR_BOT_2_ZN
 62
 15
 10
        4.50374
 20
       27.93365
 30
        2.74320
 11
        4.50374
 21
       16.63779
 31
        2.74320
 12
        5.72294
 22
       16.63779
 32
        2.74320
 13
        5.72294
 23
       16.63779
 33
        2.74320
  0
3DFACE
  8
CORRIDOR_BOT_2_ZN
 62
 15
 10
        4.50374
 20
       27.93365
 30
        2.74320
 11
        5.72294
 21
       16.63779
 31
        2.74320
 12
        5.72294
 22
       26.71445
 32
        2.74320
 13
        5.72294
 23
       26.71445
 33
        2.74320
  0
3DFACE
  8
CORRIDOR_BOT_2_ZN
 62
 15
 10
        4.50374
 20
       27.93365
 30
        2.74320
 11
        5.72294
 21
       26.71445
 31
        2.74320
 12
       44.18806
 22
       26.71445
 32
        2.74320
 13
       44.18806
 23
       26.71445
 33
        2.74320
  0
3DFACE
  8
CORRIDOR_BOT_2_ZN
 62
 15
 10
       44.18806
 20
       26.71445
 30
        2.74320
 11
       44.18806
 21
       16.63779
 31
        2.74320
 12
       45.40726
 22
       16.63779
 32
        2.74320
 13
       45.40726
 23
       16.63779
 33
        2.74320
999
CORRIDOR_MID_1 ZN:CORRIDOR_MID_1_ZN_WALL_EAST_1
  0
3DFACE
  8
CORRIDOR_MID_1_ZN
 62
 43
 10
        5.72294
 20
        6.56114
 30
        6.70560
 11
        5.72294
 21
        6.56114
 31
        3.96240
 12
        5.72294
 22
       16.63779
 32
        3.96240
 13
        5.72294
 23
       16.63779
 33
        6.70560
999
CORRIDOR_MID_1 ZN:CORRIDOR_MID_1_ZN_WALL_EAST_2
  0
3DFACE
  8
CORRIDOR_MID_1_ZN
 62
 43
 10
       45.40726
 20
        5.34194
 30
        6.70560
 11
       45.40726
 21
        5.34194
 31
        3.96240
 12
       45.40726
 22
       12.31779
 32
        3.96240
 13
       45.40726
 23
       12.31779
 33
        6.70560
999
CORRIDOR_MID_1 ZN:CORRIDOR_MID_1_ZN_WALL_EAST_3
  0
3DFACE
  8
CORRIDOR_MID_1_ZN
 62
 43
 10
       45.40726
 20
       12.31779
 30
        6.70560
 11
       45.40726
 21
       12.31779
 31
        3.96240
 12
       45.40726
 22
       16.63779
 32
        3.96240
 13
       45.40726
 23
       16.63779
 33
        6.70560
999
CORRIDOR_MID_1 ZN:CORRIDOR_MID_1_ZN_WALL_NORTH_1
  0
3DFACE
  8
CORRIDOR_MID_1_ZN
 62
 43
 10
       26.47950
 20
        6.56114
 30
        6.70560
 11
       26.47950
 21
        6.56114
 31
        3.96240
 12
       23.43150
 22
        6.56114
 32
        3.96240
 13
       23.43150
 23
        6.56114
 33
        6.70560
999
CORRIDOR_MID_1 ZN:CORRIDOR_MID_1_ZN_WALL_NORTH_2
  0
3DFACE
  8
CORRIDOR_MID_1_ZN
 62
 43
 10
       15.35430
 20
        6.56114
 30
        6.70560
 11
       15.35430
 21
        6.56114
 31
        3.96240
 12
        5.72294
 22
        6.56114
 32
        3.96240
 13
        5.72294
 23
        6.56114
 33
        6.70560
999
CORRIDOR_MID_1 ZN:CORRIDOR_MID_1_ZN_WALL_NORTH_3
  0
3DFACE
  8
CORRIDOR_MID_1_ZN
 62
 43
 10
       33.67246
 20
        6.56114
 30
        6.70560
 11
       33.67246
 21
        6.56114
 31
        3.96240
 12
       26.47950
 22
        6.56114
 32
        3.96240
 13
       26.47950
 23
        6.56114
 33
        6.70560
999
CORRIDOR_MID_1 ZN:CORRIDOR_MID_1_ZN_WALL_NORTH_4
  0
3DFACE
  8
CORRIDOR_MID_1_ZN
 62
 43
 10
       23.43150
 20
        6.56114
 30
        6.70560
 11
       23.43150
 21
        6.56114
 31
        3.96240
 12
       15.35430
 22
        6.56114
 32
        3.96240
 13
       15.35430
 23
        6.56114
 33
        6.70560
999
CORRIDOR_MID_1 ZN:CORRIDOR_MID_1_ZN_WALL_NORTH_5
  0
3DFACE
  8
CORRIDOR_MID_1_ZN
 62
 43
 10
        5.72294
 20
       16.63779
 30
        6.70560
 11
        5.72294
 21
       16.63779
 31
        3.96240
 12
        4.50374
 22
       16.63779
 32
        3.96240
 13
        4.50374
 23
       16.63779
 33
        6.70560
999
CORRIDOR_MID_1 ZN:CORRIDOR_MID_1_ZN_WALL_NORTH_6
  0
3DFACE
  8
CORRIDOR_MID_1_ZN
 62
 43
 10
       44.18806
 20
        6.56114
 30
        6.70560
 11
       44.18806
 21
        6.56114
 31
        3.96240
 12
       33.67246
 22
        6.56114
 32
        3.96240
 13
       33.67246
 23
        6.56114
 33
        6.70560
999
CORRIDOR_MID_1 ZN:CORRIDOR_MID_1_ZN_WALL_NORTH_7
  0
3DFACE
  8
CORRIDOR_MID_1_ZN
 62
 43
 10
       45.40726
 20
       16.63779
 30
        6.70560
 11
       45.40726
 21
       16.63779
 31
        3.96240
 12
       44.18806
 22
       16.63779
 32
        3.96240
 13
       44.18806
 23
       16.63779
 33
        6.70560
999
CORRIDOR_MID_1 ZN:CORRIDOR_MID_1_ZN_WALL_SOUTH_1
  0
3DFACE
  8
CORRIDOR_MID_1_ZN
 62
 43
 10
       41.84174
 20
        5.34194
 30
        6.70560
 11
       41.84174
 21
        5.34194
 31
        3.96240
 12
       45.40726
 22
        5.34194
 32
        3.96240
 13
       45.40726
 23
        5.34194
 33
        6.70560
999
CORRIDOR_MID_1 ZN:CORRIDOR_MID_1_ZN_WALL_SOUTH_2
  0
3DFACE
  8
CORRIDOR_MID_1_ZN
 62
 43
 10
        4.50374
 20
        5.34194
 30
        6.70560
 11
        4.50374
 21
        5.34194
 31
        3.96240
 12
        8.06926
 22
        5.34194
 32
        3.96240
 13
        8.06926
 23
        5.34194
 33
        6.70560
999
CORRIDOR_MID_1 ZN:CORRIDOR_MID_1_ZN_WALL_SOUTH_3
  0
3DFACE
  8
CORRIDOR_MID_1_ZN
 62
 43
 10
       16.57350
 20
        5.34194
 30
        6.70560
 11
       16.57350
 21
        5.34194
 31
        3.96240
 12
       33.33750
 22
        5.34194
 32
        3.96240
 13
       33.33750
 23
        5.34194
 33
        6.70560
999
CORRIDOR_MID_1 ZN:CORRIDOR_MID_1_ZN_WALL_SOUTH_4
  0
3DFACE
  8
CORRIDOR_MID_1_ZN
 62
 43
 10
       33.33750
 20
        5.34194
 30
        6.70560
 11
       33.33750
 21
        5.34194
 31
        3.96240
 12
       41.84174
 22
        5.34194
 32
        3.96240
 13
       41.84174
 23
        5.34194
 33
        6.70560
999
CORRIDOR_MID_1 ZN:CORRIDOR_MID_1_ZN_WALL_SOUTH_5
  0
3DFACE
  8
CORRIDOR_MID_1_ZN
 62
 43
 10
        8.06926
 20
        5.34194
 30
        6.70560
 11
        8.06926
 21
        5.34194
 31
        3.96240
 12
       16.57350
 22
        5.34194
 32
        3.96240
 13
       16.57350
 23
        5.34194
 33
        6.70560
999
CORRIDOR_MID_1 ZN:CORRIDOR_MID_1_ZN_WALL_WEST_1
  0
3DFACE
  8
CORRIDOR_MID_1_ZN
 62
 43
 10
       44.18806
 20
       16.63779
 30
        6.70560
 11
       44.18806
 21
       16.63779
 31
        3.96240
 12
       44.18806
 22
        6.56114
 32
        3.96240
 13
       44.18806
 23
        6.56114
 33
        6.70560
999
CORRIDOR_MID_1 ZN:CORRIDOR_MID_1_ZN_WALL_WEST_2
  0
3DFACE
  8
CORRIDOR_MID_1_ZN
 62
 43
 10
        4.50374
 20
       16.63779
 30
        6.70560
 11
        4.50374
 21
       16.63779
 31
        3.96240
 12
        4.50374
 22
       12.33779
 32
        3.96240
 13
        4.50374
 23
       12.33779
 33
        6.70560
999
CORRIDOR_MID_1 ZN:CORRIDOR_MID_1_ZN_WALL_WEST_3
  0
3DFACE
  8
CORRIDOR_MID_1_ZN
 62
 43
 10
        4.50374
 20
       12.33779
 30
        6.70560
 11
        4.50374
 21
       12.33779
 31
        3.96240
 12
        4.50374
 22
        5.34194
 32
        3.96240
 13
        4.50374
 23
        5.34194
 33
        6.70560
999
CORRIDOR_MID_1 ZN:CORRIDOR_MID_1_ZN_FLOOR
  0
3DFACE
  8
CORRIDOR_MID_1_ZN
 62
  8
 10
        4.50374
 20
        5.34194
 30
        3.96240
 11
        4.50374
 21
       16.63779
 31
        3.96240
 12
        5.72294
 22
       16.63779
 32
        3.96240
 13
        5.72294
 23
       16.63779
 33
        3.96240
  0
3DFACE
  8
CORRIDOR_MID_1_ZN
 62
  8
 10
        4.50374
 20
        5.34194
 30
        3.96240
 11
        5.72294
 21
       16.63779
 31
        3.96240
 12
        5.72294
 22
        6.56114
 32
        3.96240
 13
        5.72294
 23
        6.56114
 33
        3.96240
  0
3DFACE
  8
CORRIDOR_MID_1_ZN
 62
  8
 10
        4.50374
 20
        5.34194
 30
        3.96240
 11
        5.72294
 21
        6.56114
 31
        3.96240
 12
       44.18806
 22
        6.56114
 32
        3.96240
 13
       44.18806
 23
        6.56114
 33
        3.96240
  0
3DFACE
  8
CORRIDOR_MID_1_ZN
 62
  8
 10
       44.18806
 20
        6.56114
 30
        3.96240
 11
       44.18806
 21
       16.63779
 31
        3.96240
 12
       45.40726
 22
       16.63779
 32
        3.96240
 13
       45.40726
 23
       16.63779
 33
        3.96240
999
CORRIDOR_MID_1 ZN:CORRIDOR_MID_1_ZN_CEILING
  0
3DFACE
  8
CORRIDOR_MID_1_ZN
 62
 15
 10
       45.40726
 20
        5.34194
 30
        6.70560
 11
       45.40726
 21
       16.63779
 31
        6.70560
 12
       44.18806
 22
       16.63779
 32
        6.70560
 13
       44.18806
 23
       16.63779
 33
        6.70560
  0
3DFACE
  8
CORRIDOR_MID_1_ZN
 62
 15
 10
       45.40726
 20
        5.34194
 30
        6.70560
 11
       44.18806
 21
       16.63779
 31
        6.70560
 12
       44.18806
 22
        6.56114
 32
        6.70560
 13
[...]
  0
CIRCLE
  8
ENCLOSEDOFFICE_MID_1_ZN
 62
 10
 10
        4.03463
 20
        1.54252
 30
        4.72440
 40
        0.20000
999
ENCLOSEDOFFICE_MID_1 ZN:DayRefPt:2
  0
CIRCLE
  8
ENCLOSEDOFFICE_MID_1_ZN
 62
  5
 10
        4.03463
 20
        3.10841
 30
        4.72440
 40
        0.20000
999
ENCLOSEDOFFICE_MID_2 ZN:DayRefPt:1
  0
CIRCLE
  8
ENCLOSEDOFFICE_MID_2_ZN
 62
 10
 10
       45.87637
 20
        1.54252
 30
        4.72440
 40
        0.20000
999
ENCLOSEDOFFICE_MID_2 ZN:DayRefPt:2
  0
CIRCLE
  8
ENCLOSEDOFFICE_MID_2_ZN
 62
  5
 10
       45.87637
 20
        3.10841
 30
        4.72440
 40
        0.20000
999
ENCLOSEDOFFICE_MID_4 ZN:DayRefPt:1
  0
CIRCLE
  8
ENCLOSEDOFFICE_MID_4_ZN
 62
 10
 10
        4.03463
 20
       15.13418
 30
        4.67506
 40
        0.20000
999
ENCLOSEDOFFICE_MID_4 ZN:DayRefPt:2
  0
CIRCLE
  8
ENCLOSEDOFFICE_MID_4_ZN
 62
  5
 10
        4.03463
 20
       16.70007
 30
        4.67506
 40
        0.20000
999
ENCLOSEDOFFICE_MID_5 ZN:DayRefPt:1
  0
CIRCLE
  8
ENCLOSEDOFFICE_MID_5_ZN
 62
 10
 10
       13.67136
 20
       19.05229
 30
        0.76200
 40
        0.20000
999
ENCLOSEDOFFICE_MID_5 ZN:DayRefPt:2
  0
CIRCLE
  8
ENCLOSEDOFFICE_MID_5_ZN
 62
  5
 10
       13.67136
 20
       20.61818
 30
        0.76200
 40
        0.20000
999
ENCLOSEDOFFICE_MID_6 ZN:DayRefPt:1
  0
CIRCLE
  8
ENCLOSEDOFFICE_MID_6_ZN
 62
 10
 10
        4.74340
 20
       27.83652
 30
        4.72440
 40
        0.20000
999
ENCLOSEDOFFICE_MID_6 ZN:DayRefPt:2
  0
CIRCLE
  8
ENCLOSEDOFFICE_MID_6_ZN
 62
  5
 10
        4.74340
 20
       29.40241
 30
        4.72440
 40
        0.20000
999
ENCLOSEDOFFICE_MID_7 ZN:DayRefPt:1
  0
CIRCLE
  8
ENCLOSEDOFFICE_MID_7_ZN
 62
 10
 10
       91.81716
 20
       21.04401
 30
        4.72440
 40
        0.20000
999
ENCLOSEDOFFICE_MID_7 ZN:DayRefPt:2
  0
CIRCLE
  8
ENCLOSEDOFFICE_MID_7_ZN
 62
  5
 10
       91.81716
 20
       22.60990
 30
        4.72440
 40
        0.20000
999
ENCLOSEDOFFICE_MID_8 ZN:DayRefPt:1
  0
CIRCLE
  8
ENCLOSEDOFFICE_MID_8_ZN
 62
 10
 10
       79.14405
 20
       30.55665
 30
        0.76200
 40
        0.20000
999
ENCLOSEDOFFICE_MID_8 ZN:DayRefPt:2
  0
CIRCLE
  8
ENCLOSEDOFFICE_MID_8_ZN
 62
  5
 10
       79.14405
 20
       32.12254
 30
        0.76200
 40
        0.20000
999
ENCLOSEDOFFICE_MID_9 ZN:DayRefPt:1
  0
CIRCLE
  8
ENCLOSEDOFFICE_MID_9_ZN
 62
 10
 10
       94.36896
 20
       13.46237
 30
        4.72440
 40
        0.20000
999
ENCLOSEDOFFICE_MID_9 ZN:DayRefPt:2
  0
CIRCLE
  8
ENCLOSEDOFFICE_MID_9_ZN
 62
  5
 10
       94.36896
 20
       15.02826
 30
        4.72440
 40
        0.20000
999
ENCLOSEDOFFICE_TOP_1 ZN:DayRefPt:1
  0
CIRCLE
  8
ENCLOSEDOFFICE_TOP_1_ZN
 62
 10
 10
        4.03463
 20
        1.54252
 30
        8.68680
 40
        0.20000
999
ENCLOSEDOFFICE_TOP_1 ZN:DayRefPt:2
  0
CIRCLE
  8
ENCLOSEDOFFICE_TOP_1_ZN
 62
  5
 10
        4.03463
 20
        3.10841
 30
        8.68680
 40
        0.20000
999
ENCLOSEDOFFICE_TOP_2 ZN:DayRefPt:1
  0
CIRCLE
  8
ENCLOSEDOFFICE_TOP_2_ZN
 62
 10
 10
       45.87637
 20
        1.54252
 30
        8.68680
 40
        0.20000
999
ENCLOSEDOFFICE_TOP_2 ZN:DayRefPt:2
  0
CIRCLE
  8
ENCLOSEDOFFICE_TOP_2_ZN
 62
  5
 10
       45.87637
 20
        3.10841
 30
        8.68680
 40
        0.20000
999
ENCLOSEDOFFICE_TOP_4 ZN:DayRefPt:1
  0
CIRCLE
  8
ENCLOSEDOFFICE_TOP_4_ZN
 62
 10
 10
        4.41921
 20
       14.35369
 30
        8.68680
 40
        0.20000
999
ENCLOSEDOFFICE_TOP_4 ZN:DayRefPt:2
  0
CIRCLE
  8
ENCLOSEDOFFICE_TOP_4_ZN
 62
  5
 10
        4.41921
 20
       15.91958
 30
        8.68680
 40
        0.20000
999
ENCLOSEDOFFICE_TOP_5 ZN:DayRefPt:1
  0
CIRCLE
  8
ENCLOSEDOFFICE_TOP_5_ZN
 62
 10
 10
        4.03463
 20
       27.58923
 30
        8.68680
 40
        0.20000
999
ENCLOSEDOFFICE_TOP_5 ZN:DayRefPt:2
  0
CIRCLE
  8
ENCLOSEDOFFICE_TOP_5_ZN
 62
  5
 10
        4.03463
 20
       29.15512
 30
        8.68680
 40
        0.20000
999
ENCLOSEDOFFICE_TOP_6 ZN:DayRefPt:1
  0
CIRCLE
  8
ENCLOSEDOFFICE_TOP_6_ZN
 62
 10
 10
        4.58022
 20
       30.97010
 30
        8.68680
 40
        0.20000
999
ENCLOSEDOFFICE_TOP_6 ZN:DayRefPt:2
  0
CIRCLE
  8
ENCLOSEDOFFICE_TOP_6_ZN
 62
  5
 10
        4.58022
 20
       32.53599
 30
        8.68680
 40
        0.20000
999
ENCLOSEDOFFICE_TOP_7 ZN:DayRefPt:1
  0
CIRCLE
  8
ENCLOSEDOFFICE_TOP_7_ZN
 62
 10
 10
       94.08895
 20
       22.22257
 30
        8.68680
 40
        0.20000
999
ENCLOSEDOFFICE_TOP_7 ZN:DayRefPt:2
  0
CIRCLE
  8
ENCLOSEDOFFICE_TOP_7_ZN
 62
  5
 10
       94.08895
 20
       23.78846
 30
        8.68680
 40
        0.20000
999
ENCLOSEDOFFICE_TOP_8 ZN:DayRefPt:1
  0
CIRCLE
  8
ENCLOSEDOFFICE_TOP_8_ZN
 62
 10
 10
       92.71549
 20
       14.56738
 30
        8.68680
 40
        0.20000
999
ENCLOSEDOFFICE_TOP_8 ZN:DayRefPt:2
  0
CIRCLE
  8
ENCLOSEDOFFICE_TOP_8_ZN
 62
  5
 10
       92.71549
 20
       16.13327
 30
        8.68680
 40
        0.20000
999
ENCLOSEDOFFICE_TOP_9 ZN:DayRefPt:1
  0
CIRCLE
  8
ENCLOSEDOFFICE_TOP_9_ZN
 62
 10
 10
       92.01320
 20
        7.17389
 30
        8.68680
 40
        0.20000
999
ENCLOSEDOFFICE_TOP_9 ZN:DayRefPt:2
  0
CIRCLE
  8
ENCLOSEDOFFICE_TOP_9_ZN
 62
  5
 10
       92.01320
 20
        8.73978
 30
        8.68680
 40
        0.20000
999
LOUNGE_BOT ZN:DayRefPt:1
  0
CIRCLE
  8
LOUNGE_BOT_ZN
 62
 10
 10
       24.95550
 20
        1.53967
 30
        0.76200
 40
        0.20000
999
LOUNGE_BOT ZN:DayRefPt:2
  0
CIRCLE
  8
LOUNGE_BOT_ZN
 62
  5
 10
       24.95550
 20
        3.10268
 30
        0.76200
 40
        0.20000
999
OPENOFFICE_BOT_3 ZN:DayRefPt:1
  0
CIRCLE
  8
OPENOFFICE_BOT_3_ZN
 62
 10
 10
       27.74474
 20
       31.73571
 30
        0.76200
 40
        0.20000
999
OPENOFFICE_BOT_3 ZN:DayRefPt:2
  0
CIRCLE
  8
OPENOFFICE_BOT_3_ZN
 62
  5
 10
       27.74474
 20
       30.17411
 30
        0.76200
 40
        0.20000
999
OPENOFFICE_MID_3 ZN:DayRefPt:1
  0
CIRCLE
  8
OPENOFFICE_MID_3_ZN
 62
 10
 10
       28.89964
 20
       31.73562
 30
        4.72440
 40
        0.20000
999
OPENOFFICE_MID_3 ZN:DayRefPt:2
  0
CIRCLE
  8
OPENOFFICE_MID_3_ZN
 62
  5
 10
       28.89964
 20
       30.17393
 30
        4.72440
 40
        0.20000
999
OPENOFFICE_MID_4 ZN:DayRefPt:1
  0
CIRCLE
  8
OPENOFFICE_MID_4_ZN
 62
 10
 10
       24.95550
 20
        1.53835
 30
        4.72440
 40
        0.20000
999
OPENOFFICE_MID_4 ZN:DayRefPt:2
  0
CIRCLE
  8
OPENOFFICE_MID_4_ZN
 62
  5
 10
       24.95550
 20
        3.10001
 30
        4.72440
 40
        0.20000
999
OPENOFFICE_TOP_3 ZN:DayRefPt:1
  0
CIRCLE
  8
OPENOFFICE_TOP_3_ZN
 62
 10
 10
       28.89964
 20
       31.73562
 30
        8.68680
 40
        0.20000
999
OPENOFFICE_TOP_3 ZN:DayRefPt:2
  0
CIRCLE
  8
OPENOFFICE_TOP_3_ZN
 62
  5
 10
       28.89964
 20
       30.17393
 30
        8.68680
 40
        0.20000
999
OPENOFFICE_TOP_4 ZN:DayRefPt:1
  0
CIRCLE
  8
OPENOFFICE_TOP_4_ZN
 62
 10
 10
       24.95550
 20
        1.53835
 30
        8.68680
 40
        0.20000
999
OPENOFFICE_TOP_4 ZN:DayRefPt:2
  0
CIRCLE
  8
OPENOFFICE_TOP_4_ZN
 62
  5
 10
       24.95550
 20
        3.10001
 30
        8.68680
 40
        0.20000
999
CLASSROOM_BOT ZN:DEDayRefPt:1
  0
CIRCLE
  8
CLASSROOM_BOT_ZN
 62
 10
 10
        7.29298
 20
       31.72902
 30
        0.76200
 40
        0.20000
999
CLASSROOM_BOT ZN:DEDayRefPt:2
  0
CIRCLE
  8
CLASSROOM_BOT_ZN
 62
  5
 10
        7.29298
 20
       30.16062
 30
        0.76200
 40
        0.20000
999
CONFROOM_BOT_1 ZN:DEDayRefPt:1
  0
CIRCLE
  8
CONFROOM_BOT_1_ZN
 62
 10
 10
        4.03463
 20
        1.54252
 30
        0.76200
 40
        0.20000
999
CONFROOM_BOT_1 ZN:DEDayRefPt:2
  0
CIRCLE
  8
CONFROOM_BOT_1_ZN
 62
  5
 10
        4.03463
 20
        3.10841
 30
        0.76200
 40
        0.20000
999
CONFROOM_BOT_2 ZN:DEDayRefPt:1
  0
CIRCLE
  8
CONFROOM_BOT_2_ZN
 62
 10
 10
       45.87637
 20
        1.54252
 30
        0.76200
 40
        0.20000
999
CONFROOM_BOT_2 ZN:DEDayRefPt:2
  0
CIRCLE
  8
CONFROOM_BOT_2_ZN
 62
  5
 10
       45.87637
 20
        3.10841
 30
        0.76200
 40
        0.20000
999
CONFROOM_MID_1 ZN:DEDayRefPt:1
  0
CIRCLE
  8
CONFROOM_MID_1_ZN
 62
 10
 10
        4.03463
 20
        1.54252
 30
        4.72440
 40
        0.20000
999
CONFROOM_MID_1 ZN:DEDayRefPt:2
  0
CIRCLE
  8
CONFROOM_MID_1_ZN
 62
  5
 10
        4.03463
 20
        3.10841
 30
        4.72440
 40
        0.20000
999
CONFROOM_MID_2 ZN:DEDayRefPt:1
  0
CIRCLE
  8
CONFROOM_MID_2_ZN
 62
 10
 10
       45.87637
 20
        1.54252
 30
        4.72440
 40
        0.20000
999
CONFROOM_MID_2 ZN:DEDayRefPt:2
  0
CIRCLE
  8
CONFROOM_MID_2_ZN
 62
  5
 10
       45.87637
 20
        3.10841
 30
        4.72440
 40
        0.20000
999
CONFROOM_TOP_1 ZN:DEDayRefPt:1
  0
CIRCLE
  8
CONFROOM_TOP_1_ZN
 62
 10
 10
        4.03463
 20
        1.54252
 30
        8.68680
 40
        0.20000
999
CONFROOM_TOP_1 ZN:DEDayRefPt:2
  0
CIRCLE
  8
CONFROOM_TOP_1_ZN
 62
  5
 10
        4.03463
 20
        3.10841
 30
        8.68680
 40
        0.20000
999
CONFROOM_TOP_2 ZN:DEDayRefPt:1
  0
CIRCLE
  8
CONFROOM_TOP_2_ZN
 62
 10
 10
       45.87637
 20
        1.54252
 30
        8.68680
 40
        0.20000
999
CONFROOM_TOP_2 ZN:DEDayRefPt:2
  0
CIRCLE
  8
CONFROOM_TOP_2_ZN
 62
  5
 10
       45.87637
 20
        3.10841
 30
        8.68680
 40
        0.20000
999
ENCLOSEDOFFICE_BOT_1 ZN:DEDayRefPt:1
  0
CIRCLE
  8
ENCLOSEDOFFICE_BOT_1_ZN
 62
 10
 10
        4.03463
 20
        1.54252
 30
        0.76200
 40
        0.20000
999
ENCLOSEDOFFICE_BOT_1 ZN:DEDayRefPt:2
  0
CIRCLE
  8
ENCLOSEDOFFICE_BOT_1_ZN
 62
  5
 10
        4.03463
 20
        3.10841
 30
        0.76200
 40
        0.20000
999
ENCLOSEDOFFICE_BOT_2 ZN:DEDayRefPt:1
  0
CIRCLE
  8
ENCLOSEDOFFICE_BOT_2_ZN
 62
 10
 10
       45.87637
 20
       36.77653
 30
       -5.13871
 40
        0.20000
999
ENCLOSEDOFFICE_BOT_2 ZN:DEDayRefPt:2
  0
CIRCLE
  8
ENCLOSEDOFFICE_BOT_2_ZN
 62
  5
 10
       45.87637
 20
       38.34242
 30
       -5.13871
 40
        0.20000
999
ENCLOSEDOFFICE_BOT_3 ZN:DEDayRefPt:1
  0
CIRCLE
  8
ENCLOSEDOFFICE_BOT_3_ZN
 62
 10
 10
       24.95550
 20
        1.53967
 30
        0.76200
 40
        0.20000
999
ENCLOSEDOFFICE_BOT_3 ZN:DEDayRefPt:2
  0
CIRCLE
  8
ENCLOSEDOFFICE_BOT_3_ZN
 62
  5
 10
       24.95550
 20
        3.10268
 30
        0.76200
 40
        0.20000
999
ENCLOSEDOFFICE_BOT_4 ZN:DEDayRefPt:1
  0
CIRCLE
  8
ENCLOSEDOFFICE_BOT_4_ZN
 62
 10
 10
       24.95550
 20
        1.53967
 30
        0.76200
 40
        0.20000
999
ENCLOSEDOFFICE_BOT_4 ZN:DEDayRefPt:2
  0
CIRCLE
  8
ENCLOSEDOFFICE_BOT_4_ZN
 62
  5
 10
       24.95550
 20
        3.10268
 30
        0.76200
 40
        0.20000
999
ENCLOSEDOFFICE_BOT_5 ZN:DEDayRefPt:1
  0
CIRCLE
  8
ENCLOSEDOFFICE_BOT_5_ZN
 62
 10
 10
        4.06531
 20
       14.40786
 30
        0.76200
 40
        0.20000
999
ENCLOSEDOFFICE_BOT_5 ZN:DEDayRefPt:2
  0
CIRCLE
  8
ENCLOSEDOFFICE_BOT_5_ZN
 62
  5
 10
        4.06531
 20
       15.97375
 30
        0.76200
 40
        0.20000
999
ENCLOSEDOFFICE_BOT_6 ZN:DEDayRefPt:1
  0
CIRCLE
  8
ENCLOSEDOFFICE_BOT_6_ZN
 62
 10
 10
        4.08151
 20
       22.72310
 30
        0.76200
 40
        0.20000
999
ENCLOSEDOFFICE_BOT_6 ZN:DEDayRefPt:2
  0
CIRCLE
  8
ENCLOSEDOFFICE_BOT_6_ZN
 62
  5
 10
        4.08151
 20
       24.28899
 30
        0.76200
 40
        0.20000
999
ENCLOSEDOFFICE_BOT_7 ZN:DEDayRefPt:1
  0
CIRCLE
  8
ENCLOSEDOFFICE_BOT_7_ZN
 62
 10
 10
        4.03463
 20
       29.09415
 30
        0.78377
 40
        0.20000
999
ENCLOSEDOFFICE_BOT_7 ZN:DEDayRefPt:2
  0
CIRCLE
  8
ENCLOSEDOFFICE_BOT_7_ZN
 62
  5
 10
        4.03463
 20
       30.66004
 30
        0.78377
 40
        0.20000
999
ENCLOSEDOFFICE_BOT_8 ZN:DEDayRefPt:1
  0
CIRCLE
  8
ENCLOSEDOFFICE_BOT_8_ZN
 62
 10
 10
       95.95439
 20
       21.21183
 30
        0.76200
 40
        0.20000
999
ENCLOSEDOFFICE_BOT_8 ZN:DEDayRefPt:2
  0
CIRCLE
  8
ENCLOSEDOFFICE_BOT_8_ZN
 62
  5
 10
       95.95439
 20
       22.77772
 30
        0.76200
 40
        0.20000
999
ENCLOSEDOFFICE_BOT_9 ZN:DEDayRefPt:1
  0
CIRCLE
  8
ENCLOSEDOFFICE_BOT_9_ZN
 62
 10
 10
       91.28363
 20
       17.86816
 30
        1.37660
 40
        0.20000
999
ENCLOSEDOFFICE_BOT_9 ZN:DEDayRefPt:2
  0
CIRCLE
  8
ENCLOSEDOFFICE_BOT_9_ZN
 62
  5
 10
       91.28363
 20
       19.43405
 30
        1.37660
 40
        0.20000
999
ENCLOSEDOFFICE_BOT_10 ZN:DEDayRefPt:1
  0
CIRCLE
  8
ENCLOSEDOFFICE_BOT_10_ZN
 62
 10
 10
       45.87637
 20
        1.54252
 30
        0.76200
 40
        0.20000
999
ENCLOSEDOFFICE_BOT_10 ZN:DEDayRefPt:2
  0
CIRCLE
  8
ENCLOSEDOFFICE_BOT_10_ZN
 62
  5
 10
       45.87637
 20
        3.10841
 30
        0.76200
 40
        0.20000
999
ENCLOSEDOFFICE_MID_1 ZN:DEDayRefPt:1
  0
CIRCLE
  8
ENCLOSEDOFFICE_MID_1_ZN
 62
 10
 10
        4.03463
 20
        1.54252
 30
        4.72440
 40
        0.20000
999
ENCLOSEDOFFICE_MID_1 ZN:DEDayRefPt:2
  0
CIRCLE
  8
ENCLOSEDOFFICE_MID_1_ZN
 62
  5
 10
        4.03463
 20
        3.10841
 30
        4.72440
 40
        0.20000
999
ENCLOSEDOFFICE_MID_2 ZN:DEDayRefPt:1
  0
CIRCLE
  8
ENCLOSEDOFFICE_MID_2_ZN
 62
 10
 10
       45.87637
 20
        1.54252
 30
        4.72440
 40
        0.20000
999
ENCLOSEDOFFICE_MID_2 ZN:DEDayRefPt:2
  0
CIRCLE
  8
ENCLOSEDOFFICE_MID_2_ZN
 62
  5
 10
       45.87637
 20
        3.10841
 30
        4.72440
 40
        0.20000
999
ENCLOSEDOFFICE_MID_4 ZN:DEDayRefPt:1
  0
CIRCLE
  8
ENCLOSEDOFFICE_MID_4_ZN
 62
 10
 10
        4.03463
 20
       15.13418
 30
        4.67506
 40
        0.20000
999
ENCLOSEDOFFICE_MID_4 ZN:DEDayRefPt:2
  0
CIRCLE
  8
ENCLOSEDOFFICE_MID_4_ZN
 62
  5
 10
        4.03463
 20
       16.70007
 30
        4.67506
 40
        0.20000
999
ENCLOSEDOFFICE_MID_5 ZN:DEDayRefPt:1
  0
CIRCLE
  8
ENCLOSEDOFFICE_MID_5_ZN
 62
 10
 10
       13.67136
 20
       19.05229
 30
        0.76200
 40
        0.20000
999
ENCLOSEDOFFICE_MID_5 ZN:DEDayRefPt:2
  0
CIRCLE
  8
ENCLOSEDOFFICE_MID_5_ZN
 62
  5
 10
       13.67136
 20
       20.61818
 30
        0.76200
 40
        0.20000
999
ENCLOSEDOFFICE_MID_6 ZN:DEDayRefPt:1
  0
CIRCLE
  8
ENCLOSEDOFFICE_MID_6_ZN
 62
 10
 10
        4.74340
 20
       27.83652
 30
        4.72440
 40
        0.20000
999
ENCLOSEDOFFICE_MID_6 ZN:DEDayRefPt:2
  0
CIRCLE
  8
ENCLOSEDOFFICE_MID_6_ZN
 62
  5
 10
        4.74340
 20
       29.40241
 30
        4.72440
 40
        0.20000
999
ENCLOSEDOFFICE_MID_7 ZN:DEDayRefPt:1
  0
CIRCLE
  8
ENCLOSEDOFFICE_MID_7_ZN
 62
 10
 10
       91.81716
 20
       21.04401
 30
        4.72440
 40
        0.20000
999
ENCLOSEDOFFICE_MID_7 ZN:DEDayRefPt:2
  0
CIRCLE
  8
ENCLOSEDOFFICE_MID_7_ZN
 62
  5
 10
       91.81716
 20
       22.60990
 30
        4.72440
 40
        0.20000
999
ENCLOSEDOFFICE_MID_8 ZN:DEDayRefPt:1
  0
CIRCLE
  8
ENCLOSEDOFFICE_MID_8_ZN
 62
 10
 10
       79.14405
 20
       30.55665
 30
        0.76200
 40
        0.20000
999
ENCLOSEDOFFICE_MID_8 ZN:DEDayRefPt:2
  0
CIRCLE
  8
ENCLOSEDOFFICE_MID_8_ZN
 62
  5
 10
       79.14405
 20
       32.12254
 30
        0.76200
 40
        0.20000
999
ENCLOSEDOFFICE_MID_9 ZN:DEDayRefPt:1
  0
CIRCLE
  8
ENCLOSEDOFFICE_MID_9_ZN
 62
 10
 10
       94.36896
 20
       13.46237
 30
        4.72440
 40
        0.20000
999
ENCLOSEDOFFICE_MID_9 ZN:DEDayRefPt:2
  0
CIRCLE
  8
ENCLOSEDOFFICE_MID_9_ZN
 62
  5
 10
       94.36896
 20
       15.02826
 30
        4.72440
 40
        0.20000
999
ENCLOSEDOFFICE_TOP_1 ZN:DEDayRefPt:1
  0
CIRCLE
  8
ENCLOSEDOFFICE_TOP_1_ZN
 62
 10
 10
        4.03463
 20
        1.54252
 30
        8.68680
 40
        0.20000
999
ENCLOSEDOFFICE_TOP_1 ZN:DEDayRefPt:2
  0
CIRCLE
  8
ENCLOSEDOFFICE_TOP_1_ZN
 62
  5
 10
        4.03463
 20
        3.10841
 30
        8.68680
 40
        0.20000
999
ENCLOSEDOFFICE_TOP_2 ZN:DEDayRefPt:1
  0
CIRCLE
  8
ENCLOSEDOFFICE_TOP_2_ZN
 62
 10
 10
       45.87637
 20
        1.54252
 30
        8.68680
 40
        0.20000
999
ENCLOSEDOFFICE_TOP_2 ZN:DEDayRefPt:2
  0
CIRCLE
  8
ENCLOSEDOFFICE_TOP_2_ZN
 62
  5
 10
       45.87637
 20
        3.10841
 30
        8.68680
 40
        0.20000
999
ENCLOSEDOFFICE_TOP_4 ZN:DEDayRefPt:1
  0
CIRCLE
  8
ENCLOSEDOFFICE_TOP_4_ZN
 62
 10
 10
        4.41921
 20
       14.35369
 30
        8.68680
 40
        0.20000
999
ENCLOSEDOFFICE_TOP_4 ZN:DEDayRefPt:2
  0
CIRCLE
  8
ENCLOSEDOFFICE_TOP_4_ZN
 62
  5
 10
        4.41921
 20
       15.91958
 30
        8.68680
 40
        0.20000
999
ENCLOSEDOFFICE_TOP_5 ZN:DEDayRefPt:1
  0
CIRCLE
  8
ENCLOSEDOFFICE_TOP_5_ZN
 62
 10
 10
        4.03463
 20
       27.58923
 30
        8.68680
 40
        0.20000
999
ENCLOSEDOFFICE_TOP_5 ZN:DEDayRefPt:2
  0
CIRCLE
  8
ENCLOSEDOFFICE_TOP_5_ZN
 62
  5
 10
        4.03463
 20
       29.15512
 30
        8.68680
 40
        0.20000
999
ENCLOSEDOFFICE_TOP_6 ZN:DEDayRefPt:1
  0
CIRCLE
  8
ENCLOSEDOFFICE_TOP_6_ZN
 62
 10
 10
        4.58022
 20
       30.97010
 30
        8.68680
 40
        0.20000
999
ENCLOSEDOFFICE_TOP_6 ZN:DEDayRefPt:2
  0
CIRCLE
  8
ENCLOSEDOFFICE_TOP_6_ZN
 62
  5
 10
        4.58022
 20
       32.53599
 30
        8.68680
 40
        0.20000
999
ENCLOSEDOFFICE_TOP_7 ZN:DEDayRefPt:1
  0
CIRCLE
  8
ENCLOSEDOFFICE_TOP_7_ZN
 62
 10
 10
       94.08895
 20
       22.22257
 30
        8.68680
 40
        0.20000
999
ENCLOSEDOFFICE_TOP_7 ZN:DEDayRefPt:2
  0
CIRCLE
  8
ENCLOSEDOFFICE_TOP_7_ZN
 62
  5
 10
       94.08895
 20
       23.78846
 30
        8.68680
 40
        0.20000
999
ENCLOSEDOFFICE_TOP_8 ZN:DEDayRefPt:1
  0
CIRCLE
  8
ENCLOSEDOFFICE_TOP_8_ZN
 62
 10
 10
       92.71549
 20
       14.56738
 30
        8.68680
 40
        0.20000
999
ENCLOSEDOFFICE_TOP_8 ZN:DEDayRefPt:2
  0
CIRCLE
  8
ENCLOSEDOFFICE_TOP_8_ZN
 62
  5
 10
       92.71549
 20
       16.13327
 30
        8.68680
 40
        0.20000
999
ENCLOSEDOFFICE_TOP_9 ZN:DEDayRefPt:1
  0
CIRCLE
  8
ENCLOSEDOFFICE_TOP_9_ZN
 62
 10
 10
       92.01320
 20
        7.17389
 30
        8.68680
 40
        0.20000
999
ENCLOSEDOFFICE_TOP_9 ZN:DEDayRefPt:2
  0
CIRCLE
  8
ENCLOSEDOFFICE_TOP_9_ZN
 62
  5
 10
       92.01320
 20
        8.73978
 30
        8.68680
 40
        0.20000
999
LOUNGE_BOT ZN:DEDayRefPt:1
  0
CIRCLE
  8
LOUNGE_BOT_ZN
 62
 10
 10
       24.95550
 20
        1.53967
 30
        0.76200
 40
        0.20000
999
LOUNGE_BOT ZN:DEDayRefPt:2
  0
CIRCLE
  8
LOUNGE_BOT_ZN
 62
  5
 10
       24.95550
 20
        3.10268
 30
        0.76200
 40
        0.20000
999
OPENOFFICE_BOT_3 ZN:DEDayRefPt:1
  0
CIRCLE
  8
OPENOFFICE_BOT_3_ZN
 62
 10
 10
       27.74474
 20
       31.73571
 30
        0.76200
 40
        0.20000
999
OPENOFFICE_BOT_3 ZN:DEDayRefPt:2
  0
CIRCLE
  8
OPENOFFICE_BOT_3_ZN
 62
  5
 10
       27.74474
 20
       30.17411
 30
        0.76200
 40
        0.20000
999
OPENOFFICE_MID_3 ZN:DEDayRefPt:1
  0
CIRCLE
  8
OPENOFFICE_MID_3_ZN
 62
 10
 10
       28.89964
 20
       31.73562
 30
        4.72440
 40
        0.20000
999
OPENOFFICE_MID_3 ZN:DEDayRefPt:2
  0
CIRCLE
  8
OPENOFFICE_MID_3_ZN
 62
  5
 10
       28.89964
 20
       30.17393
 30
        4.72440
 40
        0.20000
999
OPENOFFICE_MID_4 ZN:DEDayRefPt:1
  0
CIRCLE
  8
OPENOFFICE_MID_4_ZN
 62
 10
 10
       24.95550
 20
        1.53835
 30
        4.72440
 40
        0.20000
999
OPENOFFICE_MID_4 ZN:DEDayRefPt:2
  0
CIRCLE
  8
OPENOFFICE_MID_4_ZN
 62
  5
 10
       24.95550
 20
        3.10001
 30
        4.72440
 40
        0.20000
999
OPENOFFICE_TOP_3 ZN:DEDayRefPt:1
  0
CIRCLE
  8
OPENOFFICE_TOP_3_ZN
 62
 10
 10
       28.89964
 20
       31.73562
 30
        8.68680
 40
        0.20000
999
OPENOFFICE_TOP_3 ZN:DEDayRefPt:2
  0
CIRCLE
  8
OPENOFFICE_TOP_3_ZN
 62
  5
 10
       28.89964
 20
       30.17393
 30
        8.68680
 40
        0.20000
999
OPENOFFICE_TOP_4 ZN:DEDayRefPt:1
  0
CIRCLE
  8
OPENOFFICE_TOP_4_ZN
 62
 10
 10
       24.95550
 20
        1.53835
 30
        8.68680
 40
        0.20000
999
OPENOFFICE_TOP_4 ZN:DEDayRefPt:2
  0
CIRCLE
  8
OPENOFFICE_TOP_4_ZN
 62
  5
 10
       24.95550
 20
        3.10001
 30
        8.68680
 40
        0.20000
  0
ENDSEC
  0
EOF
