Program Version,EnergyPlus, Version 9.6.0-316f894e91, YMD=2025.09.10 17:25
! <Version>, Version ID
 Version, 9.6
! <Timesteps per Hour>, #TimeSteps, Minutes per TimeStep {minutes}
 Timesteps per Hour,  6, 10
! <System Convergence Limits>, Minimum System TimeStep {minutes}, Max HVAC Iterations, Minimum Plant Iterations, Maximum Plant Iterations
 System Convergence Limits, 1, 20, 2, 8
! <Simulation Control>, Do Zone Sizing, Do System Sizing, Do Plant Sizing, Do Design Days, Do Weather Simulation, Do HVAC Sizing Simulation
 Simulation Control, No, No, No, No, Yes, No
! <Performance Precision Tradeoffs>, Use Coil Direct Simulation, Zone Radiant Exchange Algorithm, Override Mode, Number of Timestep In Hour, Force Euler Method, Minimum Number of Warmup Days, Force Suppress All Begin Environment Resets, Minimum System Timestep, MaxZoneTempDiff, MaxAllowedDelTemp
 Performance Precision Tradeoffs, No, ScriptF, Normal, 6, No, 1, No, 1.0, 0.300, 1.0000E-006
! <Output Reporting Tolerances>, Tolerance for Time Heating Setpoint Not Met, Tolerance for Zone Cooling Setpoint Not Met Time
 Output Reporting Tolerances, 0.200, 0.200, 
! <Site:GroundTemperature:BuildingSurface>,Jan{C},Feb{C},Mar{C},Apr{C},May{C},Jun{C},Jul{C},Aug{C},Sep{C},Oct{C},Nov{C},Dec{C}
 Site:GroundTemperature:BuildingSurface,  18.00,  18.00,  18.00,  18.00,  18.00,  18.00,  18.00,  18.00,  18.00,  18.00,  18.00,  18.00
! <Site:GroundTemperature:FCfactorMethod>,Jan{C},Feb{C},Mar{C},Apr{C},May{C},Jun{C},Jul{C},Aug{C},Sep{C},Oct{C},Nov{C},Dec{C}
 Site:GroundTemperature:FCfactorMethod,   7.10,   3.00,  -1.00,   0.80,  -0.20,   4.80,   6.10,  13.70,  22.20,  22.70,  21.70,  18.50
! <Site:GroundTemperature:Shallow>,Jan{C},Feb{C},Mar{C},Apr{C},May{C},Jun{C},Jul{C},Aug{C},Sep{C},Oct{C},Nov{C},Dec{C}
 Site:GroundTemperature:Shallow,  13.00,  13.00,  13.00,  13.00,  13.00,  13.00,  13.00,  13.00,  13.00,  13.00,  13.00,  13.00
! <Site:GroundTemperature:Deep>,Jan{C},Feb{C},Mar{C},Apr{C},May{C},Jun{C},Jul{C},Aug{C},Sep{C},Oct{C},Nov{C},Dec{C}
 Site:GroundTemperature:Deep,  16.00,  16.00,  16.00,  16.00,  16.00,  16.00,  16.00,  16.00,  16.00,  16.00,  16.00,  16.00
! <Site:GroundReflectance>,Jan{dimensionless},Feb{dimensionless},Mar{dimensionless},Apr{dimensionless},May{dimensionless},Jun{dimensionless},Jul{dimensionless},Aug{dimensionless},Sep{dimensionless},Oct{dimensionless},Nov{dimensionless},Dec{dimensionless}
 Site:GroundReflectance,  0.20,  0.20,  0.20,  0.20,  0.20,  0.20,  0.20,  0.20,  0.20,  0.20,  0.20,  0.20
! <Site:GroundReflectance:SnowModifier>, Normal, Daylighting {dimensionless}
 Site:GroundReflectance:SnowModifier,   1.000,   1.000
! <Site:GroundReflectance:Snow>,Jan{dimensionless},Feb{dimensionless},Mar{dimensionless},Apr{dimensionless},May{dimensionless},Jun{dimensionless},Jul{dimensionless},Aug{dimensionless},Sep{dimensionless},Oct{dimensionless},Nov{dimensionless},Dec{dimensionless}
 Site:GroundReflectance:Snow,  0.20,  0.20,  0.20,  0.20,  0.20,  0.20,  0.20,  0.20,  0.20,  0.20,  0.20,  0.20
! <Site:GroundReflectance:Snow:Daylighting>,Jan{dimensionless},Feb{dimensionless},Mar{dimensionless},Apr{dimensionless},May{dimensionless},Jun{dimensionless},Jul{dimensionless},Aug{dimensionless},Sep{dimensionless},Oct{dimensionless},Nov{dimensionless},Dec{dimensionless}
 Site:GroundReflectance:Snow:Daylighting,  0.20,  0.20,  0.20,  0.20,  0.20,  0.20,  0.20,  0.20,  0.20,  0.20,  0.20,  0.20
! <Environment:Weather Station>,Wind Sensor Height Above Ground {m},Wind Speed Profile Exponent {},Wind Speed Profile Boundary Layer Thickness {m},Air Temperature Sensor Height Above Ground {m},Wind Speed Modifier Coefficient-Internal,Temperature Modifier Coefficient-Internal
Environment:Weather Station,10.000,0.140,270.000,1.500,1.586,9.750E-003
! <Site:Location>, Location Name, Latitude {N+/S- Deg}, Longitude {E+/W- Deg},  Time Zone Number {GMT+/-}, Elevation {m},  Standard Pressure at Elevation {Pa}, Standard RhoAir at Elevation
Site:Location,Denver-Aurora-Buckley AFB CO USA TMY3 WMO#=724695,39.72,-104.75,-7.00,1726.00,82237,0.9774
! <Site Water Mains Temperature Information>,Calculation Method{},Water Mains Temperature Schedule Name{},Annual Average Outdoor Air Temperature{C},Maximum Difference In Monthly Average Outdoor Air Temperatures{deltaC},Fixed Default Water Mains Temperature{C}
Site Water Mains Temperature Information,Correlation,NA,9.95,23.70,NA
! <Building Information>, Building Name,North Axis {deg},Terrain,  Loads Convergence Tolerance Value,Temperature Convergence Tolerance Value,  Solar Distribution,Maximum Number of Warmup Days,Minimum Number of Warmup Days
 Building Information,OfficeMedium,0.000,City,4.00000E-002,0.20000,FullInteriorAndExterior,25,6
! <Inside Convection Algorithm>, Algorithm {Simple | TARP | CeilingDiffuser | AdaptiveConvectionAlgorithm}
Inside Convection Algorithm,TARP
! <Outside Convection Algorithm>, Algorithm {SimpleCombined | TARP | MoWitt | DOE-2 | AdaptiveConvectionAlgorithm}
Outside Convection Algorithm,TARP
! <Sky Radiance Distribution>, Value {Anisotropic}
Sky Radiance Distribution,Anisotropic
! <Zone Air Solution Algorithm>, Value {ThirdOrderBackwardDifference | AnalyticalSolution | EulerMethod}
 Zone Air Solution Algorithm, ThirdOrderBackwardDifference
! <Zone Air Carbon Dioxide Balance Simulation>, Simulation {Yes/No}, Carbon Dioxide Concentration
 Zone Air Carbon Dioxide Balance Simulation, No,N/A
! <Zone Air Generic Contaminant Balance Simulation>, Simulation {Yes/No}, Generic Contaminant Concentration
 Zone Air Generic Contaminant Balance Simulation, No,N/A
! <Zone Air Mass Flow Balance Simulation>, Enforce Mass Balance, Adjust Zone Mixing and Return {AdjustMixingOnly | AdjustReturnOnly | AdjustMixingThenReturn | AdjustReturnThenMixing | None}, Adjust Zone Infiltration {AddInfiltration | AdjustInfiltration | None}, Infiltration Zones {MixingSourceZonesOnly | AllZones}
 Zone Air Mass Flow Balance Simulation, No,N/A,N/A,N/A
! <HVACSystemRootFindingAlgorithm>, Value {RegulaFalsi | Bisection | BisectionThenRegulaFalsi | RegulaFalsiThenBisection}
 HVACSystemRootFindingAlgorithm, RegulaFalsi
! <Environment:Site Atmospheric Variation>,Wind Speed Profile Exponent {},Wind Speed Profile Boundary Layer Thickness {m},Air Temperature Gradient Coefficient {K/m}
Environment:Site Atmospheric Variation,0.330,460.000,6.500000E-003
! <Surface Geometry>,Starting Corner,Vertex Input Direction,Coordinate System,Daylight Reference Point Coordinate System,Rectangular (Simple) Surface Coordinate System
 Surface Geometry,UpperLeftCorner,Counterclockwise,RelativeCoordinateSystem,RelativeCoordinateSystem,RelativeToZoneOrigin
! <Surface Heat Transfer Algorithm>, Value {CTF - ConductionTransferFunction | EMPD - MoisturePenetrationDepthConductionTransferFunction | CondFD - ConductionFiniteDifference | HAMT - CombinedHeatAndMoistureFiniteElement} - Description,Inside Surface Max Temperature Limit{C}, Surface Convection Coefficient Lower Limit {W/m2-K}, Surface Convection Coefficient Upper Limit {W/m2-K}
Surface Heat Transfer Algorithm, CTF - ConductionTransferFunction,200,0.10,1000.0
! <Shading Summary>, Number of Fixed Detached Shades, Number of Building Detached Shades, Number of Attached Shades
 Shading Summary,0,0,0
! <Zone Summary>, Number of Zones, Number of Zone Surfaces, Number of SubSurfaces
 Zone Summary,86,939,53
! <Zone Information>,Zone Name,North Axis {deg},Origin X-Coordinate {m},Origin Y-Coordinate {m},Origin Z-Coordinate {m},Centroid X-Coordinate {m},Centroid Y-Coordinate {m},Centroid Z-Coordinate {m},Type,Zone Multiplier,Zone List Multiplier,Minimum X {m},Maximum X {m},Minimum Y {m},Maximum Y {m},Minimum Z {m},Maximum Z {m},Ceiling Height {m},Volume {m3},Zone Inside Convection Algorithm {Simple-Detailed-CeilingDiffuser-TrombeWall},Zone Outside Convection Algorithm {Simple-Detailed-Tarp-MoWitt-DOE-2-BLAST}, Floor Area {m2},Exterior Gross Wall Area {m2},Exterior Net Wall Area {m2},Exterior Window Area {m2}, Number of Surfaces, Number of SubSurfaces, Number of Shading SubSurfaces,  Part of Total Building Area
 Zone Information, ACTIVESTORAGE_BOT_1 ZN,0.0,0.00,-1.60E-031,0.00,19.39,8.80,1.37,1,1,1,15.35,23.43,6.56,11.04,0.00,2.74,2.74,99.26,TARP,TARP,36.19,0.00,0.00,0.00,7,0,0,Yes
 Zone Information, ACTIVESTORAGE_BOT_2 ZN,0.0,0.00,-1.60E-031,0.00,30.08,8.80,1.37,1,1,1,26.48,33.67,6.56,11.04,0.00,2.74,2.74,88.40,TARP,TARP,32.22,0.00,0.00,0.00,7,0,0,Yes
 Zone Information, ACTIVESTORAGE_BOT_3 ZN,0.0,0.00,-1.60E-031,0.00,30.08,24.47,1.37,1,1,1,26.48,33.67,22.23,26.71,0.00,2.74,2.74,88.40,TARP,TARP,32.22,0.00,0.00,0.00,7,0,0,Yes
 Zone Information, ACTIVESTORAGE_BOT_4 ZN,0.0,0.00,-1.60E-031,0.00,16.83,24.47,1.37,1,1,1,15.35,18.31,22.23,26.71,0.00,2.74,2.74,36.33,TARP,TARP,13.24,0.00,0.00,0.00,7,0,0,Yes
 Zone Information, ACTIVESTORAGE_MID_1 ZN,0.0,5.78E-015,-1.60E-031,3.96,19.39,8.80,5.33,1,1,1,15.35,23.43,6.56,11.04,3.96,6.71,2.74,99.26,TARP,TARP,36.19,0.00,0.00,0.00,7,0,0,Yes
 Zone Information, ACTIVESTORAGE_MID_2 ZN,0.0,5.78E-015,-1.60E-031,3.96,30.08,8.80,5.33,1,1,1,26.48,33.67,6.56,11.04,3.96,6.71,2.74,88.40,TARP,TARP,32.22,0.00,0.00,0.00,7,0,0,Yes
 Zone Information, ACTIVESTORAGE_MID_3 ZN,0.0,5.78E-015,-1.60E-031,3.96,30.08,24.47,5.33,1,1,1,26.48,33.67,22.23,26.71,3.96,6.71,2.74,88.40,TARP,TARP,32.22,0.00,0.00,0.00,7,0,0,Yes
 Zone Information, ACTIVESTORAGE_MID_4 ZN,0.0,5.78E-015,-1.60E-031,3.96,16.83,24.47,5.33,1,1,1,15.35,18.31,22.23,26.71,3.96,6.71,2.74,36.33,TARP,TARP,13.24,0.00,0.00,0.00,7,0,0,Yes
 Zone Information, ACTIVESTORAGE_TOP_1 ZN,0.0,5.78E-015,7.22E-016,7.92,19.39,8.80,9.30,1,1,1,15.35,23.43,6.56,11.04,7.92,10.67,2.74,99.26,TARP,TARP,36.19,0.00,0.00,0.00,7,0,0,Yes
 Zone Information, ACTIVESTORAGE_TOP_2 ZN,0.0,5.78E-015,7.22E-016,7.92,30.08,8.80,9.30,1,1,1,26.48,33.67,6.56,11.04,7.92,10.67,2.74,88.40,TARP,TARP,32.22,0.00,0.00,0.00,7,0,0,Yes
 Zone Information, ACTIVESTORAGE_TOP_3 ZN,0.0,5.78E-015,7.22E-016,7.92,30.08,24.47,9.30,1,1,1,26.48,33.67,22.23,26.71,7.92,10.67,2.74,88.40,TARP,TARP,32.22,0.00,0.00,0.00,7,0,0,Yes
 Zone Information, ACTIVESTORAGE_TOP_4 ZN,0.0,5.78E-015,7.22E-016,7.92,16.83,24.47,9.30,1,1,1,15.35,18.31,22.23,26.71,7.92,10.67,2.74,36.33,TARP,TARP,13.24,0.00,0.00,0.00,7,0,0,Yes
 Zone Information, CLASSROOM_BOT ZN,0.0,0.00,-1.60E-031,0.00,7.29,30.60,1.37,1,1,1,4.50,10.08,27.93,33.27,0.00,2.74,2.74,81.72,TARP,TARP,29.79,15.30,8.01,7.30,6,1,0,Yes
 Zone Information, CONFROOM_BOT_1 ZN,0.0,0.00,-7.22E-016,0.00,4.03,2.67,1.37,1,1,1,0.00,8.07,-7.22E-016,5.34,0.00,2.74,2.74,118.25,TARP,TARP,43.11,36.79,19.25,17.54,7,2,0,Yes
 Zone Information, CONFROOM_BOT_2 ZN,0.0,0.00,-1.60E-031,0.00,45.88,2.67,1.37,1,1,1,41.84,49.91,-1.60E-031,5.34,0.00,2.74,2.74,118.25,TARP,TARP,43.11,36.79,19.25,17.54,7,2,0,Yes
 Zone Information, CONFROOM_MID_1 ZN,0.0,5.78E-015,-1.60E-031,3.96,4.03,2.67,5.33,1,1,1,5.78E-015,8.07,-1.60E-031,5.34,3.96,6.71,2.74,118.25,TARP,TARP,43.11,36.79,19.25,17.54,7,2,0,Yes
 Zone Information, CONFROOM_MID_2 ZN,0.0,5.78E-015,-1.60E-031,3.96,45.88,2.67,5.33,1,1,1,41.84,49.91,-1.60E-031,5.34,3.96,6.71,2.74,118.25,TARP,TARP,43.11,36.79,19.25,17.54,7,2,0,Yes
 Zone Information, CONFROOM_TOP_1 ZN,0.0,5.78E-015,7.22E-016,7.92,4.03,2.67,9.30,1,1,1,5.78E-015,8.07,7.22E-016,5.34,7.92,10.67,2.74,118.25,TARP,TARP,43.11,36.79,19.25,17.54,7,2,0,Yes
 Zone Information, CONFROOM_TOP_2 ZN,0.0,5.78E-015,7.22E-016,7.92,45.88,2.67,9.30,1,1,1,41.84,49.91,7.22E-016,5.34,7.92,10.67,2.74,118.25,TARP,TARP,43.11,36.79,19.25,17.54,7,2,0,Yes
 Zone Information, CORRIDOR_BOT_1 ZN,0.0,0.00,-1.60E-031,0.00,24.96,8.98,1.37,1,1,1,4.50,45.41,5.34,16.64,0.00,2.74,2.74,204.21,TARP,TARP,74.44,0.00,0.00,0.00,20,0,0,Yes
 Zone Information, CORRIDOR_BOT_2 ZN,0.0,0.00,-1.60E-031,0.00,24.96,24.29,1.37,1,1,1,4.50,45.41,16.64,27.93,0.00,2.74,2.74,204.21,TARP,TARP,74.44,0.00,0.00,0.00,20,0,0,Yes
 Zone Information, CORRIDOR_MID_1 ZN,0.0,5.78E-015,-1.60E-031,3.96,24.96,8.98,5.33,1,1,1,4.50,45.41,5.34,16.64,3.96,6.71,2.74,204.21,TARP,TARP,74.44,0.00,0.00,0.00,20,0,0,Yes
 Zone Information, CORRIDOR_MID_2 ZN,0.0,5.78E-015,-1.60E-031,3.96,24.96,24.29,5.33,1,1,1,4.50,45.41,16.64,27.93,3.96,6.71,2.74,204.21,TARP,TARP,74.44,0.00,0.00,0.00,21,0,0,Yes
 Zone Information, CORRIDOR_TOP_1 ZN,0.0,5.78E-015,7.22E-016,7.92,24.96,8.98,9.30,1,1,1,4.50,45.41,5.34,16.64,7.92,10.67,2.74,204.21,TARP,TARP,74.44,0.00,0.00,0.00,20,0,0,Yes
 Zone Information, CORRIDOR_TOP_2 ZN,0.0,5.78E-015,7.22E-016,7.92,24.96,24.29,9.30,1,1,1,4.50,45.41,16.64,27.93,7.92,10.67,2.74,204.21,TARP,TARP,74.44,0.00,0.00,0.00,21,0,0,Yes
 Zone Information, DINING_BOT ZN,0.0,0.00,-1.60E-031,0.00,20.87,24.47,1.37,1,1,1,18.31,23.43,22.23,26.71,0.00,2.74,2.74,62.94,TARP,TARP,22.94,0.00,0.00,0.00,6,0,0,Yes
 Zone Information, DINING_MID ZN,0.0,5.78E-015,-1.60E-031,3.96,20.87,24.47,5.33,1,1,1,18.31,23.43,22.23,26.71,3.96,6.71,2.74,62.94,TARP,TARP,22.94,0.00,0.00,0.00,6,0,0,Yes
 Zone Information, DINING_TOP ZN,0.0,5.78E-015,7.22E-016,7.92,20.87,24.47,9.30,1,1,1,18.31,23.43,22.23,26.71,7.92,10.67,2.74,62.94,TARP,TARP,22.94,0.00,0.00,0.00,6,0,0,Yes
 Zone Information, ENCLOSEDOFFICE_BOT_1 ZN,0.0,0.00,-1.60E-031,0.00,2.25,8.83,1.37,1,1,1,0.00,4.50,5.34,12.33,0.00,2.74,2.74,86.29,TARP,TARP,31.46,19.16,10.08,9.08,6,1,0,Yes
 Zone Information, ENCLOSEDOFFICE_BOT_2 ZN,0.0,0.00,35.23,-5.90,47.66,29.78,1.37,1,1,1,45.41,49.91,26.29,33.27,0.00,2.74,2.74,86.24,TARP,TARP,31.44,31.50,16.54,14.97,7,2,0,Yes
 Zone Information, ENCLOSEDOFFICE_BOT_3 ZN,0.0,0.00,-1.60E-031,0.00,12.32,2.67,1.37,1,1,1,8.07,16.57,-1.60E-031,5.34,0.00,2.74,2.74,124.62,TARP,TARP,45.43,23.33,12.20,11.12,6,1,0,Yes
 Zone Information, ENCLOSEDOFFICE_BOT_4 ZN,0.0,0.00,-1.60E-031,0.00,37.59,2.67,1.37,1,1,1,33.34,41.84,-1.60E-031,5.34,0.00,2.74,2.74,124.62,TARP,TARP,45.43,23.33,12.20,11.12,6,1,0,Yes
 Zone Information, ENCLOSEDOFFICE_BOT_5 ZN,0.0,3.07E-002,12.87,0.00,2.25,15.82,1.37,1,1,1,0.00,4.50,12.33,19.31,0.00,2.74,2.74,86.27,TARP,TARP,31.45,19.15,10.08,9.07,7,1,0,Yes
 Zone Information, ENCLOSEDOFFICE_BOT_6 ZN,0.0,4.69E-002,21.18,0.00,2.25,22.80,1.37,1,1,1,0.00,4.50,19.31,26.29,0.00,2.74,2.74,86.27,TARP,TARP,31.45,19.15,10.08,9.07,6,1,0,Yes
 Zone Information, ENCLOSEDOFFICE_BOT_7 ZN,0.0,0.00,27.55,2.18E-002,2.25,29.78,1.37,1,1,1,0.00,4.50,26.29,33.27,0.00,2.74,2.74,86.27,TARP,TARP,31.45,31.51,16.54,14.97,7,2,0,Yes
 Zone Information, ENCLOSEDOFFICE_BOT_8 ZN,0.0,50.08,19.67,0.00,47.66,22.80,1.37,1,1,1,45.41,49.91,19.31,26.29,0.00,2.74,2.74,86.24,TARP,TARP,31.44,19.15,10.08,9.07,6,1,0,Yes
 Zone Information, ENCLOSEDOFFICE_BOT_9 ZN,0.0,45.41,16.33,0.61,47.66,15.82,1.37,1,1,1,45.41,49.91,12.33,19.31,0.00,2.74,2.74,86.24,TARP,TARP,31.44,19.15,10.08,9.07,7,1,0,Yes
 Zone Information, ENCLOSEDOFFICE_BOT_10 ZN,0.0,0.00,-1.60E-031,0.00,47.66,8.84,1.37,1,1,1,45.41,49.91,5.34,12.33,0.00,2.74,2.74,86.38,TARP,TARP,31.49,19.18,10.09,9.09,6,1,0,Yes
 Zone Information, ENCLOSEDOFFICE_MID_1 ZN,0.0,5.78E-015,-1.60E-031,3.96,2.25,8.84,5.33,1,1,1,5.78E-015,4.50,5.34,12.33,3.96,6.71,2.74,86.38,TARP,TARP,31.49,19.18,10.09,9.09,6,1,0,Yes
 Zone Information, ENCLOSEDOFFICE_MID_2 ZN,0.0,0.00,-1.60E-031,3.96,47.66,29.78,5.33,1,1,1,45.41,49.91,26.28,33.27,3.96,6.71,2.74,86.38,TARP,TARP,31.49,31.54,16.55,14.98,7,2,0,Yes
 Zone Information, ENCLOSEDOFFICE_MID_3 ZN,0.0,5.78E-015,-1.60E-031,3.96,8.45,30.60,5.33,1,1,1,4.50,12.39,27.93,33.27,3.96,6.71,2.74,115.56,TARP,TARP,42.13,21.64,11.32,10.32,7,1,0,Yes
 Zone Information, ENCLOSEDOFFICE_MID_4 ZN,0.0,0.00,13.59,3.91,2.25,15.82,5.33,1,1,1,0.00,4.50,12.33,19.31,3.96,6.71,2.74,86.24,TARP,TARP,31.44,19.15,10.08,9.07,7,1,0,Yes
 Zone Information, ENCLOSEDOFFICE_MID_5 ZN,0.0,9.64,17.51,0.00,2.25,22.80,5.33,1,1,1,0.00,4.50,19.31,26.29,3.96,6.71,2.74,86.24,TARP,TARP,31.44,19.15,10.08,9.07,6,1,0,Yes
 Zone Information, ENCLOSEDOFFICE_MID_6 ZN,0.0,0.71,26.29,3.96,2.25,29.78,5.33,1,1,1,0.00,4.50,26.29,33.27,3.96,6.71,2.74,86.24,TARP,TARP,31.44,31.50,16.54,14.97,7,2,0,Yes
 Zone Information, ENCLOSEDOFFICE_MID_7 ZN,0.0,45.94,19.50,3.96,47.66,22.79,5.33,1,1,1,45.41,49.91,19.30,26.28,3.96,6.71,2.74,86.24,TARP,TARP,31.44,19.15,10.07,9.07,6,1,0,Yes
 Zone Information, ENCLOSEDOFFICE_MID_8 ZN,0.0,33.27,29.01,0.00,47.66,15.81,5.33,1,1,1,45.41,49.91,12.32,19.30,3.96,6.71,2.74,86.24,TARP,TARP,31.44,19.15,10.08,9.07,7,1,0,Yes
 Zone Information, ENCLOSEDOFFICE_MID_9 ZN,0.0,48.49,11.92,3.96,47.66,8.83,5.33,1,1,1,45.41,49.91,5.34,12.32,3.96,6.71,2.74,86.24,TARP,TARP,31.44,19.15,10.07,9.07,6,1,0,Yes
 Zone Information, ENCLOSEDOFFICE_TOP_1 ZN,0.0,5.78E-015,7.22E-016,7.92,2.25,8.83,9.30,1,1,1,5.78E-015,4.50,5.34,12.33,7.92,10.67,2.74,86.31,TARP,TARP,31.46,19.16,10.09,9.08,6,1,0,Yes
 Zone Information, ENCLOSEDOFFICE_TOP_2 ZN,0.0,5.78E-015,7.22E-016,7.92,47.66,29.78,9.30,1,1,1,45.41,49.91,26.28,33.27,7.92,10.67,2.74,86.38,TARP,TARP,31.49,31.54,16.57,14.97,7,2,0,Yes
 Zone Information, ENCLOSEDOFFICE_TOP_3 ZN,0.0,5.78E-015,7.22E-016,7.92,8.45,30.60,9.30,1,1,1,4.50,12.39,27.93,33.27,7.92,10.67,2.74,115.56,TARP,TARP,42.13,21.64,11.32,10.32,7,1,0,Yes
 Zone Information, ENCLOSEDOFFICE_TOP_4 ZN,0.0,0.38,12.81,7.92,2.25,15.82,9.30,1,1,1,0.00,4.50,12.33,19.31,7.92,10.67,2.74,86.31,TARP,TARP,31.46,19.16,10.09,9.08,7,1,0,Yes
 Zone Information, ENCLOSEDOFFICE_TOP_5 ZN,0.0,0.00,26.05,7.92,2.25,22.80,9.30,1,1,1,0.00,4.50,19.31,26.29,7.92,10.67,2.74,86.24,TARP,TARP,31.44,19.15,10.08,9.07,6,1,0,Yes
 Zone Information, ENCLOSEDOFFICE_TOP_6 ZN,0.0,0.55,29.43,7.92,2.25,29.78,9.30,1,1,1,0.00,4.50,26.29,33.27,7.92,10.67,2.74,86.24,TARP,TARP,31.44,31.50,16.54,14.97,7,2,0,Yes
 Zone Information, ENCLOSEDOFFICE_TOP_7 ZN,0.0,48.21,20.68,7.92,47.66,22.79,9.30,1,1,1,45.41,49.91,19.30,26.28,7.92,10.67,2.74,86.24,TARP,TARP,31.44,19.15,10.08,9.07,6,1,0,Yes
 Zone Information, ENCLOSEDOFFICE_TOP_8 ZN,0.0,46.84,13.02,7.92,47.66,15.81,9.30,1,1,1,45.41,49.91,12.32,19.30,7.92,10.67,2.74,86.24,TARP,TARP,31.44,19.15,10.08,9.07,7,1,0,Yes
 Zone Information, ENCLOSEDOFFICE_TOP_9 ZN,0.0,46.14,5.63,7.92,47.66,8.83,9.30,1,1,1,45.41,49.91,5.34,12.32,7.92,10.67,2.74,86.24,TARP,TARP,31.44,19.15,10.07,9.07,6,1,0,Yes
 Zone Information, FIRSTFLOOR_PLENUM ZN,0.0,5.78E-015,0.00,2.74,24.96,16.64,3.35,1,1,1,0.00,49.91,-7.22E-016,33.27,2.74,3.96,1.22,2024.77,TARP,TARP,1660.74,202.84,202.84,0.00,60,0,0,No
 Zone Information, LOBBY_BOT ZN,0.0,0.00,-1.60E-031,0.00,24.96,16.64,1.37,1,1,1,23.43,26.48,6.56,26.71,0.00,2.74,2.74,168.51,TARP,TARP,61.43,0.00,0.00,0.00,10,0,0,Yes
 Zone Information, LOBBY_MID ZN,0.0,5.78E-015,-1.60E-031,3.96,24.96,16.64,5.33,1,1,1,23.43,26.48,6.56,26.71,3.96,6.71,2.74,168.51,TARP,TARP,61.43,0.00,0.00,0.00,10,0,0,Yes
 Zone Information, LOBBY_TOP ZN,0.0,5.78E-015,7.22E-016,7.92,24.96,16.64,9.30,1,1,1,23.43,26.48,6.56,26.71,7.92,10.67,2.74,168.51,TARP,TARP,61.43,0.00,0.00,0.00,10,0,0,Yes
 Zone Information, LOUNGE_BOT ZN,0.0,0.00,-1.60E-031,0.00,24.96,2.67,1.37,1,1,1,16.57,33.34,-1.60E-031,5.34,0.00,2.74,2.74,245.66,TARP,TARP,89.55,45.99,24.06,21.93,6,1,0,Yes
 Zone Information, MECHANICAL_BOT ZN,0.0,0.00,-1.60E-031,0.00,28.70,16.64,1.37,1,1,1,26.48,30.93,11.04,22.23,0.00,2.74,2.74,136.63,TARP,TARP,49.81,0.00,0.00,0.00,6,0,0,Yes
 Zone Information, MECHANICAL_MID ZN,0.0,5.78E-015,-1.60E-031,3.96,28.70,16.64,5.33,1,1,1,26.48,30.93,11.04,22.23,3.96,6.71,2.74,136.63,TARP,TARP,49.81,0.00,0.00,0.00,6,0,0,Yes
 Zone Information, MECHANICAL_TOP ZN,0.0,5.78E-015,7.22E-016,7.92,28.70,16.64,9.30,1,1,1,26.48,30.93,11.04,22.23,7.92,10.67,2.74,136.63,TARP,TARP,49.81,0.00,0.00,0.00,6,0,0,Yes
 Zone Information, MIDFLOOR_PLENUM ZN,0.0,5.78E-015,7.22E-016,3.96,24.96,16.64,7.32,1,1,1,0.00,49.91,-1.60E-031,33.27,6.71,7.92,1.22,2024.77,TARP,TARP,1660.74,202.84,202.84,0.00,58,0,0,No
 Zone Information, OPENOFFICE_BOT_1 ZN,0.0,0.00,-1.60E-031,0.00,10.54,16.64,1.37,1,1,1,5.72,15.35,6.56,26.71,0.00,2.74,2.74,532.47,TARP,TARP,194.10,0.00,0.00,0.00,9,0,0,Yes
 Zone Information, OPENOFFICE_BOT_2 ZN,0.0,0.00,-1.60E-031,0.00,38.93,16.64,1.37,1,1,1,33.67,44.19,6.56,26.71,0.00,2.74,2.74,581.35,TARP,TARP,211.92,0.00,0.00,0.00,9,0,0,Yes
 Zone Information, OPENOFFICE_BOT_3 ZN,0.0,0.00,-1.60E-031,0.00,27.74,30.60,1.37,1,1,1,10.08,45.41,27.93,33.27,0.00,2.74,2.74,517.50,TARP,TARP,188.65,96.90,50.69,46.21,6,1,0,Yes
 Zone Information, OPENOFFICE_MID_1 ZN,0.0,5.78E-015,-1.60E-031,3.96,10.54,16.64,5.33,1,1,1,5.72,15.35,6.56,26.71,3.96,6.71,2.74,532.47,TARP,TARP,194.10,0.00,0.00,0.00,9,0,0,Yes
 Zone Information, OPENOFFICE_MID_2 ZN,0.0,5.78E-015,-1.60E-031,3.96,38.93,16.64,5.33,1,1,1,33.67,44.19,6.56,26.71,3.96,6.71,2.74,581.35,TARP,TARP,211.92,0.00,0.00,0.00,9,0,0,Yes
 Zone Information, OPENOFFICE_MID_3 ZN,0.0,5.78E-015,-1.60E-031,3.96,28.90,30.60,5.33,1,1,1,12.39,45.41,27.93,33.27,3.96,6.71,2.74,483.66,TARP,TARP,176.31,90.57,47.38,43.19,6,1,0,Yes
 Zone Information, OPENOFFICE_MID_4 ZN,0.0,5.78E-015,-1.60E-031,3.96,24.96,2.67,5.33,1,1,1,8.07,41.84,-1.60E-031,5.34,3.96,6.71,2.74,494.90,TARP,TARP,180.41,92.64,48.47,44.18,8,1,0,Yes
 Zone Information, OPENOFFICE_TOP_1 ZN,0.0,5.78E-015,7.22E-016,7.92,10.54,16.64,9.30,1,1,1,5.72,15.35,6.56,26.71,7.92,10.67,2.74,532.47,TARP,TARP,194.10,0.00,0.00,0.00,9,0,0,Yes
 Zone Information, OPENOFFICE_TOP_2 ZN,0.0,5.78E-015,7.22E-016,7.92,38.93,16.64,9.30,1,1,1,33.67,44.19,6.56,26.71,7.92,10.67,2.74,581.35,TARP,TARP,211.92,0.00,0.00,0.00,9,0,0,Yes
 Zone Information, OPENOFFICE_TOP_3 ZN,0.0,5.78E-015,7.22E-016,7.92,28.90,30.60,9.30,1,1,1,12.39,45.41,27.93,33.27,7.92,10.67,2.74,483.66,TARP,TARP,176.31,90.57,47.38,43.19,6,1,0,Yes
 Zone Information, OPENOFFICE_TOP_4 ZN,0.0,5.78E-015,7.22E-016,7.92,24.96,2.67,9.30,1,1,1,8.07,41.84,7.22E-016,5.34,7.92,10.67,2.74,494.90,TARP,TARP,180.41,92.64,48.47,44.18,8,1,0,Yes
 Zone Information, RESTROOM_BOT ZN,0.0,0.00,-1.60E-031,0.00,20.76,16.64,1.37,1,1,1,18.10,23.43,11.04,22.23,0.00,2.74,2.74,163.79,TARP,TARP,59.71,0.00,0.00,0.00,7,0,0,Yes
 Zone Information, RESTROOM_MID ZN,0.0,5.78E-015,-1.60E-031,3.96,20.76,16.64,5.33,1,1,1,18.10,23.43,11.04,22.23,3.96,6.71,2.74,163.79,TARP,TARP,59.71,0.00,0.00,0.00,7,0,0,Yes
 Zone Information, RESTROOM_TOP ZN,0.0,5.78E-015,7.22E-016,7.92,20.76,16.64,9.30,1,1,1,18.10,23.43,11.04,22.23,7.92,10.67,2.74,163.79,TARP,TARP,59.71,0.00,0.00,0.00,7,0,0,Yes
 Zone Information, STAIR_BOT_1 ZN,0.0,0.00,-1.60E-031,0.00,16.73,16.64,1.37,1,1,1,15.35,18.10,11.04,22.23,0.00,2.74,2.74,84.23,TARP,TARP,30.71,0.00,0.00,0.00,6,0,0,Yes
 Zone Information, STAIR_BOT_2 ZN,0.0,0.00,-1.60E-031,0.00,32.30,16.64,1.37,1,1,1,30.93,33.67,11.04,22.23,0.00,2.74,2.74,84.23,TARP,TARP,30.71,0.00,0.00,0.00,6,0,0,Yes
 Zone Information, STAIR_MID_1 ZN,0.0,5.78E-015,-1.60E-031,3.96,16.73,16.64,5.33,1,1,1,15.35,18.10,11.04,22.23,3.96,6.71,2.74,84.23,TARP,TARP,30.71,0.00,0.00,0.00,6,0,0,Yes
 Zone Information, STAIR_MID_2 ZN,0.0,5.78E-015,-1.60E-031,3.96,32.30,16.64,5.33,1,1,1,30.93,33.67,11.04,22.23,3.96,6.71,2.74,84.23,TARP,TARP,30.71,0.00,0.00,0.00,6,0,0,Yes
 Zone Information, STAIR_TOP_1 ZN,0.0,5.78E-015,7.22E-016,7.92,16.73,16.64,9.30,1,1,1,15.35,18.10,11.04,22.23,7.92,10.67,2.74,84.23,TARP,TARP,30.71,0.00,0.00,0.00,6,0,0,Yes
 Zone Information, STAIR_TOP_2 ZN,0.0,5.78E-015,7.22E-016,7.92,32.30,16.64,9.30,1,1,1,30.93,33.67,11.04,22.23,7.92,10.67,2.74,84.23,TARP,TARP,30.71,0.00,0.00,0.00,6,0,0,Yes
 Zone Information, TOPFLOOR_PLENUM ZN,0.0,-1.03E-029,1.44E-015,0.00,24.96,16.64,11.28,1,1,1,-1.03E-029,49.91,7.22E-016,33.27,10.67,11.89,1.22,2024.77,TARP,TARP,1660.74,202.84,202.84,0.00,32,0,0,No
! <Zone Internal Gains Nominal>,Zone Name, Floor Area {m2},# Occupants,Area per Occupant {m2/person},Occupant per Area {person/m2},Interior Lighting {W/m2},Electric Load {W/m2},Gas Load {W/m2},Other Load {W/m2},Hot Water Eq {W/m2},Steam Equipment {W/m2},Sum Loads per Area {W/m2},Outdoor Controlled Baseboard Heat
 Zone Internal Gains Nominal, ACTIVESTORAGE_BOT_1 ZN,36.19,0.0,N/A,0.000,10.764,0.000,0.000,0.000,0.000,0.000,10.764,No
 Zone Internal Gains Nominal, ACTIVESTORAGE_BOT_2 ZN,32.22,0.0,N/A,0.000,10.764,0.000,0.000,0.000,0.000,0.000,10.764,No
 Zone Internal Gains Nominal, ACTIVESTORAGE_BOT_3 ZN,32.22,0.0,N/A,0.000,10.764,0.000,0.000,0.000,0.000,0.000,10.764,No
 Zone Internal Gains Nominal, ACTIVESTORAGE_BOT_4 ZN,13.24,0.0,N/A,0.000,10.764,0.000,0.000,0.000,0.000,0.000,10.764,No
 Zone Internal Gains Nominal, ACTIVESTORAGE_MID_1 ZN,36.19,0.0,N/A,0.000,10.764,0.000,0.000,0.000,0.000,0.000,10.764,No
 Zone Internal Gains Nominal, ACTIVESTORAGE_MID_2 ZN,32.22,0.0,N/A,0.000,10.764,0.000,0.000,0.000,0.000,0.000,10.764,No
 Zone Internal Gains Nominal, ACTIVESTORAGE_MID_3 ZN,32.22,0.0,N/A,0.000,10.764,0.000,0.000,0.000,0.000,0.000,10.764,No
 Zone Internal Gains Nominal, ACTIVESTORAGE_MID_4 ZN,13.24,0.0,N/A,0.000,10.764,0.000,0.000,0.000,0.000,0.000,10.764,No
 Zone Internal Gains Nominal, ACTIVESTORAGE_TOP_1 ZN,36.19,0.0,N/A,0.000,10.764,0.000,0.000,0.000,0.000,0.000,10.764,No
 Zone Internal Gains Nominal, ACTIVESTORAGE_TOP_2 ZN,32.22,0.0,N/A,0.000,10.764,0.000,0.000,0.000,0.000,0.000,10.764,No
 Zone Internal Gains Nominal, ACTIVESTORAGE_TOP_3 ZN,32.22,0.0,N/A,0.000,10.764,0.000,0.000,0.000,0.000,0.000,10.764,No
 Zone Internal Gains Nominal, ACTIVESTORAGE_TOP_4 ZN,13.24,0.0,N/A,0.000,10.764,0.000,0.000,0.000,0.000,0.000,10.764,No
 Zone Internal Gains Nominal, CLASSROOM_BOT ZN,29.79,16.0,1.862,0.537,10.764,10.000,0.000,0.000,0.000,0.000,20.764,No
 Zone Internal Gains Nominal, CONFROOM_BOT_1 ZN,43.11,23.0,1.874,0.534,10.764,10.764,0.000,0.000,0.000,0.000,21.528,No
 Zone Internal Gains Nominal, CONFROOM_BOT_2 ZN,43.11,23.0,1.874,0.534,10.764,10.764,0.000,0.000,0.000,0.000,21.528,No
 Zone Internal Gains Nominal, CONFROOM_MID_1 ZN,43.11,23.0,1.874,0.534,10.764,10.764,0.000,0.000,0.000,0.000,21.528,No
 Zone Internal Gains Nominal, CONFROOM_MID_2 ZN,43.11,23.0,1.874,0.534,10.764,10.764,0.000,0.000,0.000,0.000,21.528,No
 Zone Internal Gains Nominal, CONFROOM_TOP_1 ZN,43.11,23.0,1.874,0.534,10.764,10.764,0.000,0.000,0.000,0.000,21.528,No
 Zone Internal Gains Nominal, CONFROOM_TOP_2 ZN,43.11,23.0,1.874,0.534,10.764,10.764,0.000,0.000,0.000,0.000,21.528,No
 Zone Internal Gains Nominal, CORRIDOR_BOT_1 ZN,74.44,0.0,N/A,0.000,10.764,3.122,0.000,0.000,0.000,0.000,13.885,No
 Zone Internal Gains Nominal, CORRIDOR_BOT_2 ZN,74.44,0.0,N/A,0.000,10.764,3.122,0.000,0.000,0.000,0.000,13.885,No
 Zone Internal Gains Nominal, CORRIDOR_MID_1 ZN,74.44,0.0,N/A,0.000,10.764,3.122,0.000,0.000,0.000,0.000,13.885,No
 Zone Internal Gains Nominal, CORRIDOR_MID_2 ZN,74.44,0.0,N/A,0.000,10.764,3.122,0.000,0.000,0.000,0.000,13.885,No
 Zone Internal Gains Nominal, CORRIDOR_TOP_1 ZN,74.44,0.0,N/A,0.000,10.764,3.122,0.000,0.000,0.000,0.000,13.885,No
 Zone Internal Gains Nominal, CORRIDOR_TOP_2 ZN,74.44,0.0,N/A,0.000,10.764,3.122,0.000,0.000,0.000,0.000,13.885,No
 Zone Internal Gains Nominal, DINING_BOT ZN,22.94,12.0,1.912,0.523,10.764,10.764,0.000,0.000,0.000,0.000,21.528,No
 Zone Internal Gains Nominal, DINING_MID ZN,22.94,12.0,1.912,0.523,10.764,10.764,0.000,0.000,0.000,0.000,21.528,No
 Zone Internal Gains Nominal, DINING_TOP ZN,22.94,12.0,1.912,0.523,10.764,10.764,0.000,0.000,0.000,0.000,21.528,No
 Zone Internal Gains Nominal, ENCLOSEDOFFICE_BOT_1 ZN,31.46,2.0,15.728,6.358E-002,10.764,9.365,0.000,0.000,0.000,0.000,20.129,No
 Zone Internal Gains Nominal, ENCLOSEDOFFICE_BOT_2 ZN,31.44,2.0,15.718,6.362E-002,10.764,9.365,0.000,0.000,0.000,0.000,20.129,No
 Zone Internal Gains Nominal, ENCLOSEDOFFICE_BOT_3 ZN,45.43,2.0,22.715,4.402E-002,10.764,9.365,0.000,0.000,0.000,0.000,20.129,No
 Zone Internal Gains Nominal, ENCLOSEDOFFICE_BOT_4 ZN,45.43,2.0,22.715,4.402E-002,10.764,9.365,0.000,0.000,0.000,0.000,20.129,No
 Zone Internal Gains Nominal, ENCLOSEDOFFICE_BOT_5 ZN,31.45,2.0,15.724,6.360E-002,10.764,9.365,0.000,0.000,0.000,0.000,20.129,No
 Zone Internal Gains Nominal, ENCLOSEDOFFICE_BOT_6 ZN,31.45,2.0,15.724,6.360E-002,10.764,0.000,0.000,0.000,0.000,0.000,10.764,No
 Zone Internal Gains Nominal, ENCLOSEDOFFICE_BOT_7 ZN,31.45,2.0,15.724,6.360E-002,10.764,9.365,0.000,0.000,0.000,0.000,20.129,No
 Zone Internal Gains Nominal, ENCLOSEDOFFICE_BOT_8 ZN,31.44,2.0,15.718,6.362E-002,10.764,9.365,0.000,0.000,0.000,0.000,20.129,No
 Zone Internal Gains Nominal, ENCLOSEDOFFICE_BOT_9 ZN,31.44,2.0,15.718,6.362E-002,10.764,9.365,0.000,0.000,0.000,0.000,20.129,No
 Zone Internal Gains Nominal, ENCLOSEDOFFICE_BOT_10 ZN,31.49,2.0,15.745,6.351E-002,10.764,9.365,0.000,0.000,0.000,0.000,20.129,No
 Zone Internal Gains Nominal, ENCLOSEDOFFICE_MID_1 ZN,31.49,2.0,15.745,6.351E-002,10.764,9.365,0.000,0.000,0.000,0.000,20.129,No
 Zone Internal Gains Nominal, ENCLOSEDOFFICE_MID_2 ZN,31.49,2.0,15.745,6.351E-002,10.764,9.365,0.000,0.000,0.000,0.000,20.129,No
 Zone Internal Gains Nominal, ENCLOSEDOFFICE_MID_3 ZN,42.13,2.0,21.063,4.748E-002,10.764,9.365,0.000,0.000,0.000,0.000,20.129,No
 Zone Internal Gains Nominal, ENCLOSEDOFFICE_MID_4 ZN,31.44,2.0,15.718,6.362E-002,10.764,9.365,0.000,0.000,0.000,0.000,20.129,No
 Zone Internal Gains Nominal, ENCLOSEDOFFICE_MID_5 ZN,31.44,2.0,15.718,6.362E-002,10.764,9.365,0.000,0.000,0.000,0.000,20.129,No
 Zone Internal Gains Nominal, ENCLOSEDOFFICE_MID_6 ZN,31.44,2.0,15.718,6.362E-002,10.764,9.365,0.000,0.000,0.000,0.000,20.129,No
 Zone Internal Gains Nominal, ENCLOSEDOFFICE_MID_7 ZN,31.44,2.0,15.718,6.362E-002,10.764,9.365,0.000,0.000,0.000,0.000,20.129,No
 Zone Internal Gains Nominal, ENCLOSEDOFFICE_MID_8 ZN,31.44,2.0,15.718,6.362E-002,10.764,9.365,0.000,0.000,0.000,0.000,20.129,No
 Zone Internal Gains Nominal, ENCLOSEDOFFICE_MID_9 ZN,31.44,2.0,15.718,6.362E-002,10.764,9.365,0.000,0.000,0.000,0.000,20.129,No
 Zone Internal Gains Nominal, ENCLOSEDOFFICE_TOP_1 ZN,31.46,2.0,15.732,6.357E-002,10.764,9.365,0.000,0.000,0.000,0.000,20.129,No
 Zone Internal Gains Nominal, ENCLOSEDOFFICE_TOP_2 ZN,31.49,2.0,15.745,6.351E-002,10.764,9.365,0.000,0.000,0.000,0.000,20.129,No
 Zone Internal Gains Nominal, ENCLOSEDOFFICE_TOP_3 ZN,42.13,2.0,21.063,4.748E-002,10.764,9.365,0.000,0.000,0.000,0.000,20.129,No
 Zone Internal Gains Nominal, ENCLOSEDOFFICE_TOP_4 ZN,31.46,2.0,15.732,6.357E-002,10.764,9.365,0.000,0.000,0.000,0.000,20.129,No
 Zone Internal Gains Nominal, ENCLOSEDOFFICE_TOP_5 ZN,31.44,2.0,15.718,6.362E-002,10.764,9.365,0.000,0.000,0.000,0.000,20.129,No
 Zone Internal Gains Nominal, ENCLOSEDOFFICE_TOP_6 ZN,31.44,2.0,15.718,6.362E-002,10.764,9.365,0.000,0.000,0.000,0.000,20.129,No
 Zone Internal Gains Nominal, ENCLOSEDOFFICE_TOP_7 ZN,31.44,2.0,15.718,6.362E-002,10.764,9.365,0.000,0.000,0.000,0.000,20.129,No
 Zone Internal Gains Nominal, ENCLOSEDOFFICE_TOP_8 ZN,31.44,2.0,15.718,6.362E-002,10.764,9.365,0.000,0.000,0.000,0.000,20.129,No
 Zone Internal Gains Nominal, ENCLOSEDOFFICE_TOP_9 ZN,31.44,2.0,15.718,6.362E-002,10.764,9.365,0.000,0.000,0.000,0.000,20.129,No
 Zone Internal Gains Nominal, FIRSTFLOOR_PLENUM ZN,1660.74,0.0,N/A,0.000,0.000,0.000,0.000,0.000,0.000,0.000,0.000,No
 Zone Internal Gains Nominal, LOBBY_BOT ZN,61.43,7.0,8.775,0.114,10.764,530.908,0.000,0.000,0.000,0.000,541.671,No
 Zone Internal Gains Nominal, LOBBY_MID ZN,61.43,7.0,8.775,0.114,10.764,2.906,0.000,0.000,0.000,0.000,13.670,No
 Zone Internal Gains Nominal, LOBBY_TOP ZN,61.43,7.0,8.775,0.114,10.764,2.906,0.000,0.000,0.000,0.000,13.670,No
 Zone Internal Gains Nominal, LOUNGE_BOT ZN,89.55,29.0,3.088,0.324,10.764,2.906,0.000,0.000,0.000,0.000,13.670,No
 Zone Internal Gains Nominal, MECHANICAL_BOT ZN,49.81,0.0,N/A,0.000,10.764,2.906,0.000,0.000,0.000,0.000,13.670,No
 Zone Internal Gains Nominal, MECHANICAL_MID ZN,49.81,0.0,N/A,0.000,10.764,2.906,0.000,0.000,0.000,0.000,13.670,No
 Zone Internal Gains Nominal, MECHANICAL_TOP ZN,49.81,0.0,N/A,0.000,10.764,2.906,0.000,0.000,0.000,0.000,13.670,No
 Zone Internal Gains Nominal, MIDFLOOR_PLENUM ZN,1660.74,0.0,N/A,0.000,0.000,0.000,0.000,0.000,0.000,0.000,0.000,No
 Zone Internal Gains Nominal, OPENOFFICE_BOT_1 ZN,194.10,10.0,19.410,5.152E-002,10.764,10.333,0.000,0.000,0.000,0.000,21.097,No
 Zone Internal Gains Nominal, OPENOFFICE_BOT_2 ZN,211.92,11.0,19.266,5.191E-002,10.764,10.333,0.000,0.000,0.000,0.000,21.097,No
 Zone Internal Gains Nominal, OPENOFFICE_BOT_3 ZN,188.65,10.0,18.865,5.301E-002,10.764,10.333,0.000,0.000,0.000,0.000,21.097,No
 Zone Internal Gains Nominal, OPENOFFICE_MID_1 ZN,194.10,10.0,19.410,5.152E-002,10.764,10.333,0.000,0.000,0.000,0.000,21.097,No
 Zone Internal Gains Nominal, OPENOFFICE_MID_2 ZN,211.92,11.0,19.266,5.191E-002,10.764,10.333,0.000,0.000,0.000,0.000,21.097,No
 Zone Internal Gains Nominal, OPENOFFICE_MID_3 ZN,176.31,9.0,19.590,5.105E-002,10.764,10.333,0.000,0.000,0.000,0.000,21.097,No
 Zone Internal Gains Nominal, OPENOFFICE_MID_4 ZN,180.41,10.0,18.041,5.543E-002,10.764,10.333,0.000,0.000,0.000,0.000,21.097,No
 Zone Internal Gains Nominal, OPENOFFICE_TOP_1 ZN,194.10,10.0,19.410,5.152E-002,10.764,10.333,0.000,0.000,0.000,0.000,21.097,No
 Zone Internal Gains Nominal, OPENOFFICE_TOP_2 ZN,211.92,11.0,19.266,5.191E-002,10.764,10.333,0.000,0.000,0.000,0.000,21.097,No
 Zone Internal Gains Nominal, OPENOFFICE_TOP_3 ZN,176.31,9.0,19.590,5.105E-002,10.764,10.333,0.000,0.000,0.000,0.000,21.097,No
 Zone Internal Gains Nominal, OPENOFFICE_TOP_4 ZN,180.41,10.0,18.041,5.543E-002,10.764,10.333,0.000,0.000,0.000,0.000,21.097,No
 Zone Internal Gains Nominal, RESTROOM_BOT ZN,59.71,0.0,N/A,0.000,10.764,2.906,0.000,0.000,0.000,0.000,13.670,No
 Zone Internal Gains Nominal, RESTROOM_MID ZN,59.71,0.0,N/A,0.000,10.764,2.906,0.000,0.000,0.000,0.000,13.670,No
 Zone Internal Gains Nominal, RESTROOM_TOP ZN,59.71,0.0,N/A,0.000,10.764,2.906,0.000,0.000,0.000,0.000,13.670,No
 Zone Internal Gains Nominal, STAIR_BOT_1 ZN,30.71,0.0,N/A,0.000,10.764,0.000,0.000,0.000,0.000,0.000,10.764,No
 Zone Internal Gains Nominal, STAIR_BOT_2 ZN,30.71,0.0,N/A,0.000,10.764,0.000,0.000,0.000,0.000,0.000,10.764,No
 Zone Internal Gains Nominal, STAIR_MID_1 ZN,30.71,0.0,N/A,0.000,10.764,0.000,0.000,0.000,0.000,0.000,10.764,No
 Zone Internal Gains Nominal, STAIR_MID_2 ZN,30.71,0.0,N/A,0.000,10.764,0.000,0.000,0.000,0.000,0.000,10.764,No
 Zone Internal Gains Nominal, STAIR_TOP_1 ZN,30.71,0.0,N/A,0.000,10.764,0.000,0.000,0.000,0.000,0.000,10.764,No
 Zone Internal Gains Nominal, STAIR_TOP_2 ZN,30.71,0.0,N/A,0.000,10.764,0.000,0.000,0.000,0.000,0.000,10.764,No
 Zone Internal Gains Nominal, TOPFLOOR_PLENUM ZN,1660.74,0.0,N/A,0.000,0.000,0.000,0.000,0.000,0.000,0.000,0.000,No
! <People Internal Gains Nominal>,Name,Schedule Name,Zone Name,Zone Floor Area {m2},# Zone Occupants,Number of People {},People/Floor Area {person/m2},Floor Area per person {m2/person},Fraction Radiant,Fraction Convected,Sensible Fraction Calculation,Activity level,ASHRAE 55 Warnings,Carbon Dioxide Generation Rate,Nominal Minimum Number of People,Nominal Maximum Number of People
 People Internal Gains Nominal, ACTIVESTORAGE_BOT_1 ZN ACTIVESTORAGE PEOPLE,NON_PEOPLE_SCHEDULE,ACTIVESTORAGE_BOT_1 ZN,36.19,0.0,0.0,0.000,N/A,0.300,0.700,AutoCalculate,ACTIVITY_SCH,No,3.8200E-008,0,0
 People Internal Gains Nominal, ACTIVESTORAGE_BOT_2 ZN ACTIVESTORAGE PEOPLE,NON_PEOPLE_SCHEDULE,ACTIVESTORAGE_BOT_2 ZN,32.22,0.0,0.0,0.000,N/A,0.300,0.700,AutoCalculate,ACTIVITY_SCH,No,3.8200E-008,0,0
 People Internal Gains Nominal, ACTIVESTORAGE_BOT_3 ZN ACTIVESTORAGE PEOPLE,NON_PEOPLE_SCHEDULE,ACTIVESTORAGE_BOT_3 ZN,32.22,0.0,0.0,0.000,N/A,0.300,0.700,AutoCalculate,ACTIVITY_SCH,No,3.8200E-008,0,0
 People Internal Gains Nominal, ACTIVESTORAGE_BOT_4 ZN ACTIVESTORAGE PEOPLE,NON_PEOPLE_SCHEDULE,ACTIVESTORAGE_BOT_4 ZN,13.24,0.0,0.0,0.000,N/A,0.300,0.700,AutoCalculate,ACTIVITY_SCH,No,3.8200E-008,0,0
 People Internal Gains Nominal, ACTIVESTORAGE_MID_1 ZN ACTIVESTORAGE PEOPLE,NON_PEOPLE_SCHEDULE,ACTIVESTORAGE_MID_1 ZN,36.19,0.0,0.0,0.000,N/A,0.300,0.700,AutoCalculate,ACTIVITY_SCH,No,3.8200E-008,0,0
 People Internal Gains Nominal, ACTIVESTORAGE_MID_2 ZN ACTIVESTORAGE PEOPLE,NON_PEOPLE_SCHEDULE,ACTIVESTORAGE_MID_2 ZN,32.22,0.0,0.0,0.000,N/A,0.300,0.700,AutoCalculate,ACTIVITY_SCH,No,3.8200E-008,0,0
 People Internal Gains Nominal, ACTIVESTORAGE_MID_3 ZN ACTIVESTORAGE PEOPLE,NON_PEOPLE_SCHEDULE,ACTIVESTORAGE_MID_3 ZN,32.22,0.0,0.0,0.000,N/A,0.300,0.700,AutoCalculate,ACTIVITY_SCH,No,3.8200E-008,0,0
 People Internal Gains Nominal, ACTIVESTORAGE_MID_4 ZN ACTIVESTORAGE PEOPLE,NON_PEOPLE_SCHEDULE,ACTIVESTORAGE_MID_4 ZN,13.24,0.0,0.0,0.000,N/A,0.300,0.700,AutoCalculate,ACTIVITY_SCH,No,3.8200E-008,0,0
 People Internal Gains Nominal, ACTIVESTORAGE_TOP_1 ZN ACTIVESTORAGE PEOPLE,NON_PEOPLE_SCHEDULE,ACTIVESTORAGE_TOP_1 ZN,36.19,0.0,0.0,0.000,N/A,0.300,0.700,AutoCalculate,ACTIVITY_SCH,No,3.8200E-008,0,0
 People Internal Gains Nominal, ACTIVESTORAGE_TOP_2 ZN ACTIVESTORAGE PEOPLE,NON_PEOPLE_SCHEDULE,ACTIVESTORAGE_TOP_2 ZN,32.22,0.0,0.0,0.000,N/A,0.300,0.700,AutoCalculate,ACTIVITY_SCH,No,3.8200E-008,0,0
 People Internal Gains Nominal, ACTIVESTORAGE_TOP_3 ZN ACTIVESTORAGE PEOPLE,NON_PEOPLE_SCHEDULE,ACTIVESTORAGE_TOP_3 ZN,32.22,0.0,0.0,0.000,N/A,0.300,0.700,AutoCalculate,ACTIVITY_SCH,No,3.8200E-008,0,0
 People Internal Gains Nominal, ACTIVESTORAGE_TOP_4 ZN ACTIVESTORAGE PEOPLE,NON_PEOPLE_SCHEDULE,ACTIVESTORAGE_TOP_4 ZN,13.24,0.0,0.0,0.000,N/A,0.300,0.700,AutoCalculate,ACTIVITY_SCH,No,3.8200E-008,0,0
 People Internal Gains Nominal, CLASSROOM_BOT ZN PEOPLE,CLASSROOM_BOT ZN OCCUPANCY SCHEDULE,CLASSROOM_BOT ZN,29.79,16.0,16.0,0.537,1.862,0.300,0.700,AutoCalculate,ACTIVITY_SCH,No,3.8200E-008,0,16
 People Internal Gains Nominal, CONFROOM_BOT_1 ZN PEOPLE,CONFROOM_BOT_1 ZN OCCUPANCY SCHEDULE,CONFROOM_BOT_1 ZN,43.11,23.0,23.0,0.534,1.874,0.300,0.700,AutoCalculate,ACTIVITY_SCH,No,3.8200E-008,0,23
 People Internal Gains Nominal, CONFROOM_BOT_2 ZN PEOPLE,CONFROOM_BOT_2 ZN OCCUPANCY SCHEDULE,CONFROOM_BOT_2 ZN,43.11,23.0,23.0,0.534,1.874,0.300,0.700,AutoCalculate,ACTIVITY_SCH,No,3.8200E-008,0,23
 People Internal Gains Nominal, CONFROOM_MID_1 ZN PEOPLE,CONFROOM_MID_1 ZN OCCUPANCY SCHEDULE,CONFROOM_MID_1 ZN,43.11,23.0,23.0,0.534,1.874,0.300,0.700,AutoCalculate,ACTIVITY_SCH,No,3.8200E-008,0,23
 People Internal Gains Nominal, CONFROOM_MID_2 ZN PEOPLE,CONFROOM_MID_2 ZN OCCUPANCY SCHEDULE,CONFROOM_MID_2 ZN,43.11,23.0,23.0,0.534,1.874,0.300,0.700,AutoCalculate,ACTIVITY_SCH,No,3.8200E-008,0,23
 People Internal Gains Nominal, CONFROOM_TOP_1 ZN PEOPLE,CONFROOM_TOP_1 ZN OCCUPANCY SCHEDULE,CONFROOM_TOP_1 ZN,43.11,23.0,23.0,0.534,1.874,0.300,0.700,AutoCalculate,ACTIVITY_SCH,No,3.8200E-008,0,23
 People Internal Gains Nominal, CONFROOM_TOP_2 ZN PEOPLE,CONFROOM_TOP_2 ZN OCCUPANCY SCHEDULE,CONFROOM_TOP_2 ZN,43.11,23.0,23.0,0.534,1.874,0.300,0.700,AutoCalculate,ACTIVITY_SCH,No,3.8200E-008,0,23
 People Internal Gains Nominal, CORRIDOR_BOT_1 ZN CORRIDOR PEOPLE,NON_PEOPLE_SCHEDULE,CORRIDOR_BOT_1 ZN,74.44,0.0,0.0,0.000,N/A,0.300,0.700,AutoCalculate,ACTIVITY_SCH,No,3.8200E-008,0,0
 People Internal Gains Nominal, CORRIDOR_BOT_2 ZN CORRIDOR PEOPLE,NON_PEOPLE_SCHEDULE,CORRIDOR_BOT_2 ZN,74.44,0.0,0.0,0.000,N/A,0.300,0.700,AutoCalculate,ACTIVITY_SCH,No,3.8200E-008,0,0
 People Internal Gains Nominal, CORRIDOR_MID_1 ZN CORRIDOR PEOPLE,NON_PEOPLE_SCHEDULE,CORRIDOR_MID_1 ZN,74.44,0.0,0.0,0.000,N/A,0.300,0.700,AutoCalculate,ACTIVITY_SCH,No,3.8200E-008,0,0
 People Internal Gains Nominal, CORRIDOR_MID_2 ZN CORRIDOR PEOPLE,NON_PEOPLE_SCHEDULE,CORRIDOR_MID_2 ZN,74.44,0.0,0.0,0.000,N/A,0.300,0.700,AutoCalculate,ACTIVITY_SCH,No,3.8200E-008,0,0
 People Internal Gains Nominal, CORRIDOR_TOP_1 ZN CORRIDOR PEOPLE,NON_PEOPLE_SCHEDULE,CORRIDOR_TOP_1 ZN,74.44,0.0,0.0,0.000,N/A,0.300,0.700,AutoCalculate,ACTIVITY_SCH,No,3.8200E-008,0,0
 People Internal Gains Nominal, CORRIDOR_TOP_2 ZN CORRIDOR PEOPLE,NON_PEOPLE_SCHEDULE,CORRIDOR_TOP_2 ZN,74.44,0.0,0.0,0.000,N/A,0.300,0.700,AutoCalculate,ACTIVITY_SCH,No,3.8200E-008,0,0
 People Internal Gains Nominal, DINING_BOT ZN PEOPLE,DINING_BOT ZN OCCUPANCY SCHEDULE,DINING_BOT ZN,22.94,12.0,12.0,0.523,1.912,0.300,0.700,AutoCalculate,ACTIVITY_SCH,No,3.8200E-008,0,12
 People Internal Gains Nominal, DINING_MID ZN PEOPLE,DINING_MID ZN OCCUPANCY SCHEDULE,DINING_MID ZN,22.94,12.0,12.0,0.523,1.912,0.300,0.700,AutoCalculate,ACTIVITY_SCH,No,3.8200E-008,0,12
 People Internal Gains Nominal, DINING_TOP ZN PEOPLE,DINING_TOP ZN OCCUPANCY SCHEDULE,DINING_TOP ZN,22.94,12.0,12.0,0.523,1.912,0.300,0.700,AutoCalculate,ACTIVITY_SCH,No,3.8200E-008,0,12
 People Internal Gains Nominal, ENCLOSEDOFFICE_BOT_1 ZN PEOPLE,ENCLOSEDOFFICE_BOT_1 ZN OCCUPANCY SCHEDULE,ENCLOSEDOFFICE_BOT_1 ZN,31.46,2.0,2.0,6.358E-002,15.728,0.300,0.700,AutoCalculate,ACTIVITY_SCH,No,3.8200E-008,0,2
 People Internal Gains Nominal, ENCLOSEDOFFICE_BOT_2 ZN PEOPLE,ENCLOSEDOFFICE_BOT_2 ZN OCCUPANCY SCHEDULE,ENCLOSEDOFFICE_BOT_2 ZN,31.44,2.0,2.0,6.362E-002,15.718,0.300,0.700,AutoCalculate,ACTIVITY_SCH,No,3.8200E-008,0,2
 People Internal Gains Nominal, ENCLOSEDOFFICE_BOT_3 ZN PEOPLE,ENCLOSEDOFFICE_BOT_3 ZN OCCUPANCY SCHEDULE,ENCLOSEDOFFICE_BOT_3 ZN,45.43,2.0,2.0,4.402E-002,22.715,0.300,0.700,AutoCalculate,ACTIVITY_SCH,No,3.8200E-008,0,2
 People Internal Gains Nominal, ENCLOSEDOFFICE_BOT_4 ZN PEOPLE,ENCLOSEDOFFICE_BOT_4 ZN OCCUPANCY SCHEDULE,ENCLOSEDOFFICE_BOT_4 ZN,45.43,2.0,2.0,4.402E-002,22.715,0.300,0.700,AutoCalculate,ACTIVITY_SCH,No,3.8200E-008,0,2
 People Internal Gains Nominal, ENCLOSEDOFFICE_BOT_5 ZN PEOPLE,ENCLOSEDOFFICE_BOT_5 ZN OCCUPANCY SCHEDULE,ENCLOSEDOFFICE_BOT_5 ZN,31.45,2.0,2.0,6.360E-002,15.724,0.300,0.700,AutoCalculate,ACTIVITY_SCH,No,3.8200E-008,0,2
 People Internal Gains Nominal, ENCLOSEDOFFICE_BOT_6 ZN PEOPLE,ENCLOSEDOFFICE_BOT_6 ZN OCCUPANCY SCHEDULE,ENCLOSEDOFFICE_BOT_6 ZN,31.45,2.0,2.0,6.360E-002,15.724,0.300,0.700,AutoCalculate,ACTIVITY_SCH,No,3.8200E-008,0,2
 People Internal Gains Nominal, ENCLOSEDOFFICE_BOT_7 ZN PEOPLE,ENCLOSEDOFFICE_BOT_7 ZN OCCUPANCY SCHEDULE,ENCLOSEDOFFICE_BOT_7 ZN,31.45,2.0,2.0,6.360E-002,15.724,0.300,0.700,AutoCalculate,ACTIVITY_SCH,No,3.8200E-008,0,2
 People Internal Gains Nominal, ENCLOSEDOFFICE_BOT_8 ZN PEOPLE,ENCLOSEDOFFICE_BOT_8 ZN OCCUPANCY SCHEDULE,ENCLOSEDOFFICE_BOT_8 ZN,31.44,2.0,2.0,6.362E-002,15.718,0.300,0.700,AutoCalculate,ACTIVITY_SCH,No,3.8200E-008,0,2
 People Internal Gains Nominal, ENCLOSEDOFFICE_BOT_9 ZN PEOPLE,ENCLOSEDOFFICE_BOT_9 ZN OCCUPANCY SCHEDULE,ENCLOSEDOFFICE_BOT_9 ZN,31.44,2.0,2.0,6.362E-002,15.718,0.300,0.700,AutoCalculate,ACTIVITY_SCH,No,3.8200E-008,0,2
 People Internal Gains Nominal, ENCLOSEDOFFICE_BOT_10 ZN PEOPLE,ENCLOSEDOFFICE_BOT_10 ZN OCCUPANCY SCHEDULE,ENCLOSEDOFFICE_BOT_10 ZN,31.49,2.0,2.0,6.351E-002,15.745,0.300,0.700,AutoCalculate,ACTIVITY_SCH,No,3.8200E-008,0,2
 People Internal Gains Nominal, ENCLOSEDOFFICE_MID_1 ZN PEOPLE,ENCLOSEDOFFICE_MID_1 ZN OCCUPANCY SCHEDULE,ENCLOSEDOFFICE_MID_1 ZN,31.49,2.0,2.0,6.351E-002,15.745,0.300,0.700,AutoCalculate,ACTIVITY_SCH,No,3.8200E-008,0,2
 People Internal Gains Nominal, ENCLOSEDOFFICE_MID_2 ZN PEOPLE,ENCLOSEDOFFICE_MID_2 ZN OCCUPANCY SCHEDULE,ENCLOSEDOFFICE_MID_2 ZN,31.49,2.0,2.0,6.351E-002,15.745,0.300,0.700,AutoCalculate,ACTIVITY_SCH,No,3.8200E-008,0,2
 People Internal Gains Nominal, ENCLOSEDOFFICE_MID_3 ZN PEOPLE,ENCLOSEDOFFICE_MID_3 ZN OCCUPANCY SCHEDULE,ENCLOSEDOFFICE_MID_3 ZN,42.13,2.0,2.0,4.748E-002,21.063,0.300,0.700,AutoCalculate,ACTIVITY_SCH,No,3.8200E-008,0,2
 People Internal Gains Nominal, ENCLOSEDOFFICE_MID_4 ZN PEOPLE,ENCLOSEDOFFICE_MID_4 ZN OCCUPANCY SCHEDULE,ENCLOSEDOFFICE_MID_4 ZN,31.44,2.0,2.0,6.362E-002,15.718,0.300,0.700,AutoCalculate,ACTIVITY_SCH,No,3.8200E-008,0,2
 People Internal Gains Nominal, ENCLOSEDOFFICE_MID_5 ZN PEOPLE,ENCLOSEDOFFICE_MID_5 ZN OCCUPANCY SCHEDULE,ENCLOSEDOFFICE_MID_5 ZN,31.44,2.0,2.0,6.362E-002,15.718,0.300,0.700,AutoCalculate,ACTIVITY_SCH,No,3.8200E-008,0,2
 People Internal Gains Nominal, ENCLOSEDOFFICE_MID_6 ZN PEOPLE,ENCLOSEDOFFICE_MID_6 ZN OCCUPANCY SCHEDULE,ENCLOSEDOFFICE_MID_6 ZN,31.44,2.0,2.0,6.362E-002,15.718,0.300,0.700,AutoCalculate,ACTIVITY_SCH,No,3.8200E-008,0,2
 People Internal Gains Nominal, ENCLOSEDOFFICE_MID_7 ZN PEOPLE,ENCLOSEDOFFICE_MID_7 ZN OCCUPANCY SCHEDULE,ENCLOSEDOFFICE_MID_7 ZN,31.44,2.0,2.0,6.362E-002,15.718,0.300,0.700,AutoCalculate,ACTIVITY_SCH,No,3.8200E-008,0,2
 People Internal Gains Nominal, ENCLOSEDOFFICE_MID_8 ZN PEOPLE,ENCLOSEDOFFICE_MID_8 ZN OCCUPANCY SCHEDULE,ENCLOSEDOFFICE_MID_8 ZN,31.44,2.0,2.0,6.362E-002,15.718,0.300,0.700,AutoCalculate,ACTIVITY_SCH,No,3.8200E-008,0,2
 People Internal Gains Nominal, ENCLOSEDOFFICE_MID_9 ZN PEOPLE,ENCLOSEDOFFICE_MID_9 ZN OCCUPANCY SCHEDULE,ENCLOSEDOFFICE_MID_9 ZN,31.44,2.0,2.0,6.362E-002,15.718,0.300,0.700,AutoCalculate,ACTIVITY_SCH,No,3.8200E-008,0,2
 People Internal Gains Nominal, ENCLOSEDOFFICE_TOP_1 ZN PEOPLE,ENCLOSEDOFFICE_TOP_1 ZN OCCUPANCY SCHEDULE,ENCLOSEDOFFICE_TOP_1 ZN,31.46,2.0,2.0,6.357E-002,15.732,0.300,0.700,AutoCalculate,ACTIVITY_SCH,No,3.8200E-008,0,2
 People Internal Gains Nominal, ENCLOSEDOFFICE_TOP_2 ZN PEOPLE,ENCLOSEDOFFICE_TOP_2 ZN OCCUPANCY SCHEDULE,ENCLOSEDOFFICE_TOP_2 ZN,31.49,2.0,2.0,6.351E-002,15.745,0.300,0.700,AutoCalculate,ACTIVITY_SCH,No,3.8200E-008,0,2
 People Internal Gains Nominal, ENCLOSEDOFFICE_TOP_3 ZN PEOPLE,ENCLOSEDOFFICE_TOP_3 ZN OCCUPANCY SCHEDULE,ENCLOSEDOFFICE_TOP_3 ZN,42.13,2.0,2.0,4.748E-002,21.063,0.300,0.700,AutoCalculate,ACTIVITY_SCH,No,3.8200E-008,0,2
 People Internal Gains Nominal, ENCLOSEDOFFICE_TOP_4 ZN PEOPLE,ENCLOSEDOFFICE_TOP_4 ZN OCCUPANCY SCHEDULE,ENCLOSEDOFFICE_TOP_4 ZN,31.46,2.0,2.0,6.357E-002,15.732,0.300,0.700,AutoCalculate,ACTIVITY_SCH,No,3.8200E-008,0,2
 People Internal Gains Nominal, ENCLOSEDOFFICE_TOP_5 ZN PEOPLE,ENCLOSEDOFFICE_TOP_5 ZN OCCUPANCY SCHEDULE,ENCLOSEDOFFICE_TOP_5 ZN,31.44,2.0,2.0,6.362E-002,15.718,0.300,0.700,AutoCalculate,ACTIVITY_SCH,No,3.8200E-008,0,2
 People Internal Gains Nominal, ENCLOSEDOFFICE_TOP_6 ZN PEOPLE,ENCLOSEDOFFICE_TOP_6 ZN OCCUPANCY SCHEDULE,ENCLOSEDOFFICE_TOP_6 ZN,31.44,2.0,2.0,6.362E-002,15.718,0.300,0.700,AutoCalculate,ACTIVITY_SCH,No,3.8200E-008,0,2
 People Internal Gains Nominal, ENCLOSEDOFFICE_TOP_7 ZN PEOPLE,ENCLOSEDOFFICE_TOP_7 ZN OCCUPANCY SCHEDULE,ENCLOSEDOFFICE_TOP_7 ZN,31.44,2.0,2.0,6.362E-002,15.718,0.300,0.700,AutoCalculate,ACTIVITY_SCH,No,3.8200E-008,0,2
 People Internal Gains Nominal, ENCLOSEDOFFICE_TOP_8 ZN PEOPLE,ENCLOSEDOFFICE_TOP_8 ZN OCCUPANCY SCHEDULE,ENCLOSEDOFFICE_TOP_8 ZN,31.44,2.0,2.0,6.362E-002,15.718,0.300,0.700,AutoCalculate,ACTIVITY_SCH,No,3.8200E-008,0,2
 People Internal Gains Nominal, ENCLOSEDOFFICE_TOP_9 ZN PEOPLE,ENCLOSEDOFFICE_TOP_9 ZN OCCUPANCY SCHEDULE,ENCLOSEDOFFICE_TOP_9 ZN,31.44,2.0,2.0,6.362E-002,15.718,0.300,0.700,AutoCalculate,ACTIVITY_SCH,No,3.8200E-008,0,2
 People Internal Gains Nominal, LOBBY_BOT ZN PEOPLE,LOBBY_BOT ZN OCCUPANCY SCHEDULE,LOBBY_BOT ZN,61.43,7.0,7.0,0.114,8.775,0.300,0.700,AutoCalculate,ACTIVITY_SCH,No,3.8200E-008,0,7
 People Internal Gains Nominal, LOBBY_MID ZN PEOPLE,LOBBY_MID ZN OCCUPANCY SCHEDULE,LOBBY_MID ZN,61.43,7.0,7.0,0.114,8.775,0.300,0.700,AutoCalculate,ACTIVITY_SCH,No,3.8200E-008,0,7
 People Internal Gains Nominal, LOBBY_TOP ZN PEOPLE,LOBBY_TOP ZN OCCUPANCY SCHEDULE,LOBBY_TOP ZN,61.43,7.0,7.0,0.114,8.775,0.300,0.700,AutoCalculate,ACTIVITY_SCH,No,3.8200E-008,0,7
 People Internal Gains Nominal, LOUNGE_BOT ZN PEOPLE,LOUNGE_BOT ZN OCCUPANCY SCHEDULE,LOUNGE_BOT ZN,89.55,29.0,29.0,0.324,3.088,0.300,0.700,AutoCalculate,ACTIVITY_SCH,No,3.8200E-008,0,29
 People Internal Gains Nominal, MECHANICAL_BOT ZN MECHANICAL PEOPLE,NON_PEOPLE_SCHEDULE,MECHANICAL_BOT ZN,49.81,0.0,0.0,0.000,N/A,0.300,0.700,AutoCalculate,ACTIVITY_SCH,No,3.8200E-008,0,0
 People Internal Gains Nominal, MECHANICAL_MID ZN MECHANICAL PEOPLE,NON_PEOPLE_SCHEDULE,MECHANICAL_MID ZN,49.81,0.0,0.0,0.000,N/A,0.300,0.700,AutoCalculate,ACTIVITY_SCH,No,3.8200E-008,0,0
 People Internal Gains Nominal, MECHANICAL_TOP ZN MECHANICAL PEOPLE,NON_PEOPLE_SCHEDULE,MECHANICAL_TOP ZN,49.81,0.0,0.0,0.000,N/A,0.300,0.700,AutoCalculate,ACTIVITY_SCH,No,3.8200E-008,0,0
 People Internal Gains Nominal, OPENOFFICE_BOT_1 ZN PEOPLE,OPENOFFICE_BOT_1 ZN OCCUPANCY SCHEDULE,OPENOFFICE_BOT_1 ZN,194.10,10.0,10.0,5.152E-002,19.410,0.300,0.700,AutoCalculate,ACTIVITY_SCH,No,3.8200E-008,0,10
 People Internal Gains Nominal, OPENOFFICE_BOT_2 ZN PEOPLE,OPENOFFICE_BOT_2 ZN OCCUPANCY SCHEDULE,OPENOFFICE_BOT_2 ZN,211.92,11.0,11.0,5.191E-002,19.266,0.300,0.700,AutoCalculate,ACTIVITY_SCH,No,3.8200E-008,0,11
 People Internal Gains Nominal, OPENOFFICE_BOT_3 ZN PEOPLE,OPENOFFICE_BOT_3 ZN OCCUPANCY SCHEDULE,OPENOFFICE_BOT_3 ZN,188.65,10.0,10.0,5.301E-002,18.865,0.300,0.700,AutoCalculate,ACTIVITY_SCH,No,3.8200E-008,0,10
 People Internal Gains Nominal, OPENOFFICE_MID_1 ZN PEOPLE,OPENOFFICE_MID_1 ZN OCCUPANCY SCHEDULE,OPENOFFICE_MID_1 ZN,194.10,10.0,10.0,5.152E-002,19.410,0.300,0.700,AutoCalculate,ACTIVITY_SCH,No,3.8200E-008,0,10
 People Internal Gains Nominal, OPENOFFICE_MID_2 ZN PEOPLE,OPENOFFICE_MID_2 ZN OCCUPANCY SCHEDULE,OPENOFFICE_MID_2 ZN,211.92,11.0,11.0,5.191E-002,19.266,0.300,0.700,AutoCalculate,ACTIVITY_SCH,No,3.8200E-008,0,11
 People Internal Gains Nominal, OPENOFFICE_MID_3 ZN PEOPLE,OPENOFFICE_MID_3 ZN OCCUPANCY SCHEDULE,OPENOFFICE_MID_3 ZN,176.31,9.0,9.0,5.105E-002,19.590,0.300,0.700,AutoCalculate,ACTIVITY_SCH,No,3.8200E-008,0,9
 People Internal Gains Nominal, OPENOFFICE_MID_4 ZN PEOPLE,OPENOFFICE_MID_4 ZN OCCUPANCY SCHEDULE,OPENOFFICE_MID_4 ZN,180.41,10.0,10.0,5.543E-002,18.041,0.300,0.700,AutoCalculate,ACTIVITY_SCH,No,3.8200E-008,0,10
 People Internal Gains Nominal, OPENOFFICE_TOP_1 ZN PEOPLE,OPENOFFICE_TOP_1 ZN OCCUPANCY SCHEDULE,OPENOFFICE_TOP_1 ZN,194.10,10.0,10.0,5.152E-002,19.410,0.300,0.700,AutoCalculate,ACTIVITY_SCH,No,3.8200E-008,0,10
 People Internal Gains Nominal, OPENOFFICE_TOP_2 ZN PEOPLE,OPENOFFICE_TOP_2 ZN OCCUPANCY SCHEDULE,OPENOFFICE_TOP_2 ZN,211.92,11.0,11.0,5.191E-002,19.266,0.300,0.700,AutoCalculate,ACTIVITY_SCH,No,3.8200E-008,0,11
 People Internal Gains Nominal, OPENOFFICE_TOP_3 ZN PEOPLE,OPENOFFICE_TOP_3 ZN OCCUPANCY SCHEDULE,OPENOFFICE_TOP_3 ZN,176.31,9.0,9.0,5.105E-002,19.590,0.300,0.700,AutoCalculate,ACTIVITY_SCH,No,3.8200E-008,0,9
 People Internal Gains Nominal, OPENOFFICE_TOP_4 ZN PEOPLE,OPENOFFICE_TOP_4 ZN OCCUPANCY SCHEDULE,OPENOFFICE_TOP_4 ZN,180.41,10.0,10.0,5.543E-002,18.041,0.300,0.700,AutoCalculate,ACTIVITY_SCH,No,3.8200E-008,0,10
 People Internal Gains Nominal, RESTROOM_BOT ZN RESTROOM PEOPLE,NON_PEOPLE_SCHEDULE,RESTROOM_BOT ZN,59.71,0.0,0.0,0.000,N/A,0.300,0.700,AutoCalculate,ACTIVITY_SCH,No,3.8200E-008,0,0
 People Internal Gains Nominal, RESTROOM_MID ZN RESTROOM PEOPLE,NON_PEOPLE_SCHEDULE,RESTROOM_MID ZN,59.71,0.0,0.0,0.000,N/A,0.300,0.700,AutoCalculate,ACTIVITY_SCH,No,3.8200E-008,0,0
 People Internal Gains Nominal, RESTROOM_TOP ZN RESTROOM PEOPLE,NON_PEOPLE_SCHEDULE,RESTROOM_TOP ZN,59.71,0.0,0.0,0.000,N/A,0.300,0.700,AutoCalculate,ACTIVITY_SCH,No,3.8200E-008,0,0
 People Internal Gains Nominal, SPAWN-ZONE-ACTIVESTORAGE_MID_1 ZN-RADIANTGAINS,SPAWN-PEOPLE-SCHEDULE,ACTIVESTORAGE_MID_1 ZN,36.19,0.0,0.0,0.000,N/A,0.000,1.000,AutoCalculate,SPAWN-PEOPLEACTIVITY-SCHEDULE,No,3.8200E-008,0,0
 People Internal Gains Nominal, SPAWN-ZONE-ACTIVESTORAGE_MID_2 ZN-RADIANTGAINS,SPAWN-PEOPLE-SCHEDULE,ACTIVESTORAGE_MID_2 ZN,32.22,0.0,0.0,0.000,N/A,0.000,1.000,AutoCalculate,SPAWN-PEOPLEACTIVITY-SCHEDULE,No,3.8200E-008,0,0
 People Internal Gains Nominal, SPAWN-ZONE-ACTIVESTORAGE_MID_3 ZN-RADIANTGAINS,SPAWN-PEOPLE-SCHEDULE,ACTIVESTORAGE_MID_3 ZN,32.22,0.0,0.0,0.000,N/A,0.000,1.000,AutoCalculate,SPAWN-PEOPLEACTIVITY-SCHEDULE,No,3.8200E-008,0,0
 People Internal Gains Nominal, SPAWN-ZONE-ACTIVESTORAGE_MID_4 ZN-RADIANTGAINS,SPAWN-PEOPLE-SCHEDULE,ACTIVESTORAGE_MID_4 ZN,13.24,0.0,0.0,0.000,N/A,0.000,1.000,AutoCalculate,SPAWN-PEOPLEACTIVITY-SCHEDULE,No,3.8200E-008,0,0
 People Internal Gains Nominal, SPAWN-ZONE-CONFROOM_MID_1 ZN-RADIANTGAINS,SPAWN-PEOPLE-SCHEDULE,CONFROOM_MID_1 ZN,43.11,23.0,0.0,0.000,N/A,0.000,1.000,AutoCalculate,SPAWN-PEOPLEACTIVITY-SCHEDULE,No,3.8200E-008,0,0
 People Internal Gains Nominal, SPAWN-ZONE-CONFROOM_MID_2 ZN-RADIANTGAINS,SPAWN-PEOPLE-SCHEDULE,CONFROOM_MID_2 ZN,43.11,23.0,0.0,0.000,N/A,0.000,1.000,AutoCalculate,SPAWN-PEOPLEACTIVITY-SCHEDULE,No,3.8200E-008,0,0
 People Internal Gains Nominal, SPAWN-ZONE-CORRIDOR_MID_1 ZN-RADIANTGAINS,SPAWN-PEOPLE-SCHEDULE,CORRIDOR_MID_1 ZN,74.44,0.0,0.0,0.000,N/A,0.000,1.000,AutoCalculate,SPAWN-PEOPLEACTIVITY-SCHEDULE,No,3.8200E-008,0,0
 People Internal Gains Nominal, SPAWN-ZONE-CORRIDOR_MID_2 ZN-RADIANTGAINS,SPAWN-PEOPLE-SCHEDULE,CORRIDOR_MID_2 ZN,74.44,0.0,0.0,0.000,N/A,0.000,1.000,AutoCalculate,SPAWN-PEOPLEACTIVITY-SCHEDULE,No,3.8200E-008,0,0
 People Internal Gains Nominal, SPAWN-ZONE-DINING_MID ZN-RADIANTGAINS,SPAWN-PEOPLE-SCHEDULE,DINING_MID ZN,22.94,12.0,0.0,0.000,N/A,0.000,1.000,AutoCalculate,SPAWN-PEOPLEACTIVITY-SCHEDULE,No,3.8200E-008,0,0
 People Internal Gains Nominal, SPAWN-ZONE-ENCLOSEDOFFICE_MID_1 ZN-RADIANTGAINS,SPAWN-PEOPLE-SCHEDULE,ENCLOSEDOFFICE_MID_1 ZN,31.49,2.0,0.0,0.000,N/A,0.000,1.000,AutoCalculate,SPAWN-PEOPLEACTIVITY-SCHEDULE,No,3.8200E-008,0,0
 People Internal Gains Nominal, SPAWN-ZONE-ENCLOSEDOFFICE_MID_2 ZN-RADIANTGAINS,SPAWN-PEOPLE-SCHEDULE,ENCLOSEDOFFICE_MID_2 ZN,31.49,2.0,0.0,0.000,N/A,0.000,1.000,AutoCalculate,SPAWN-PEOPLEACTIVITY-SCHEDULE,No,3.8200E-008,0,0
 People Internal Gains Nominal, SPAWN-ZONE-ENCLOSEDOFFICE_MID_3 ZN-RADIANTGAINS,SPAWN-PEOPLE-SCHEDULE,ENCLOSEDOFFICE_MID_3 ZN,42.13,2.0,0.0,0.000,N/A,0.000,1.000,AutoCalculate,SPAWN-PEOPLEACTIVITY-SCHEDULE,No,3.8200E-008,0,0
 People Internal Gains Nominal, SPAWN-ZONE-LOBBY_MID ZN-RADIANTGAINS,SPAWN-PEOPLE-SCHEDULE,LOBBY_MID ZN,61.43,7.0,0.0,0.000,N/A,0.000,1.000,AutoCalculate,SPAWN-PEOPLEACTIVITY-SCHEDULE,No,3.8200E-008,0,0
 People Internal Gains Nominal, SPAWN-ZONE-MECHANICAL_MID ZN-RADIANTGAINS,SPAWN-PEOPLE-SCHEDULE,MECHANICAL_MID ZN,49.81,0.0,0.0,0.000,N/A,0.000,1.000,AutoCalculate,SPAWN-PEOPLEACTIVITY-SCHEDULE,No,3.8200E-008,0,0
 People Internal Gains Nominal, SPAWN-ZONE-OPENOFFICE_MID_1 ZN-RADIANTGAINS,SPAWN-PEOPLE-SCHEDULE,OPENOFFICE_MID_1 ZN,194.10,10.0,0.0,0.000,N/A,0.000,1.000,AutoCalculate,SPAWN-PEOPLEACTIVITY-SCHEDULE,No,3.8200E-008,0,0
 People Internal Gains Nominal, SPAWN-ZONE-OPENOFFICE_MID_2 ZN-RADIANTGAINS,SPAWN-PEOPLE-SCHEDULE,OPENOFFICE_MID_2 ZN,211.92,11.0,0.0,0.000,N/A,0.000,1.000,AutoCalculate,SPAWN-PEOPLEACTIVITY-SCHEDULE,No,3.8200E-008,0,0
 People Internal Gains Nominal, SPAWN-ZONE-OPENOFFICE_MID_3 ZN-RADIANTGAINS,SPAWN-PEOPLE-SCHEDULE,OPENOFFICE_MID_3 ZN,176.31,9.0,0.0,0.000,N/A,0.000,1.000,AutoCalculate,SPAWN-PEOPLEACTIVITY-SCHEDULE,No,3.8200E-008,0,0
 People Internal Gains Nominal, SPAWN-ZONE-OPENOFFICE_MID_4 ZN-RADIANTGAINS,SPAWN-PEOPLE-SCHEDULE,OPENOFFICE_MID_4 ZN,180.41,10.0,0.0,0.000,N/A,0.000,1.000,AutoCalculate,SPAWN-PEOPLEACTIVITY-SCHEDULE,No,3.8200E-008,0,0
 People Internal Gains Nominal, SPAWN-ZONE-RESTROOM_MID ZN-RADIANTGAINS,SPAWN-PEOPLE-SCHEDULE,RESTROOM_MID ZN,59.71,0.0,0.0,0.000,N/A,0.000,1.000,AutoCalculate,SPAWN-PEOPLEACTIVITY-SCHEDULE,No,3.8200E-008,0,0
 People Internal Gains Nominal, SPAWN-ZONE-STAIR_MID_1 ZN-RADIANTGAINS,SPAWN-PEOPLE-SCHEDULE,STAIR_MID_1 ZN,30.71,0.0,0.0,0.000,N/A,0.000,1.000,AutoCalculate,SPAWN-PEOPLEACTIVITY-SCHEDULE,No,3.8200E-008,0,0
 People Internal Gains Nominal, SPAWN-ZONE-STAIR_MID_2 ZN-RADIANTGAINS,SPAWN-PEOPLE-SCHEDULE,STAIR_MID_2 ZN,30.71,0.0,0.0,0.000,N/A,0.000,1.000,AutoCalculate,SPAWN-PEOPLEACTIVITY-SCHEDULE,No,3.8200E-008,0,0
 People Internal Gains Nominal, STAIR_BOT_1 ZN STAIR PEOPLE,NON_PEOPLE_SCHEDULE,STAIR_BOT_1 ZN,30.71,0.0,0.0,0.000,N/A,0.300,0.700,AutoCalculate,ACTIVITY_SCH,No,3.8200E-008,0,0
 People Internal Gains Nominal, STAIR_BOT_2 ZN STAIR PEOPLE,NON_PEOPLE_SCHEDULE,STAIR_BOT_2 ZN,30.71,0.0,0.0,0.000,N/A,0.300,0.700,AutoCalculate,ACTIVITY_SCH,No,3.8200E-008,0,0
 People Internal Gains Nominal, STAIR_MID_1 ZN STAIR PEOPLE,NON_PEOPLE_SCHEDULE,STAIR_MID_1 ZN,30.71,0.0,0.0,0.000,N/A,0.300,0.700,AutoCalculate,ACTIVITY_SCH,No,3.8200E-008,0,0
 People Internal Gains Nominal, STAIR_MID_2 ZN STAIR PEOPLE,NON_PEOPLE_SCHEDULE,STAIR_MID_2 ZN,30.71,0.0,0.0,0.000,N/A,0.300,0.700,AutoCalculate,ACTIVITY_SCH,No,3.8200E-008,0,0
 People Internal Gains Nominal, STAIR_TOP_1 ZN STAIR PEOPLE,NON_PEOPLE_SCHEDULE,STAIR_TOP_1 ZN,30.71,0.0,0.0,0.000,N/A,0.300,0.700,AutoCalculate,ACTIVITY_SCH,No,3.8200E-008,0,0
 People Internal Gains Nominal, STAIR_TOP_2 ZN STAIR PEOPLE,NON_PEOPLE_SCHEDULE,STAIR_TOP_2 ZN,30.71,0.0,0.0,0.000,N/A,0.300,0.700,AutoCalculate,ACTIVITY_SCH,No,3.8200E-008,0,0
! <Lights Internal Gains Nominal>,Name,Schedule Name,Zone Name,Zone Floor Area {m2},# Zone Occupants,Lighting Level {W},Lights/Floor Area {W/m2},Lights per person {W/person},Fraction Return Air,Fraction Radiant,Fraction Short Wave,Fraction Convected,Fraction Replaceable,End-Use Category,Nominal Minimum Lighting Level {W},Nominal Maximum Lighting Level {W}
 Lights Internal Gains Nominal, ACTIVESTORAGE_BOT_1 ZN_LIGHTS,BLDG_LIGHT_SCH,ACTIVESTORAGE_BOT_1 ZN,36.19,0.0,389.495,10.764,N/A,0.000,0.700,0.200,0.100,1.000,LightsWired,0.000,389.495
 Lights Internal Gains Nominal, ACTIVESTORAGE_BOT_2 ZN_LIGHTS,BLDG_LIGHT_SCH,ACTIVESTORAGE_BOT_2 ZN,32.22,0.0,346.856,10.764,N/A,0.000,0.700,0.200,0.100,1.000,LightsWired,0.000,346.856
 Lights Internal Gains Nominal, ACTIVESTORAGE_BOT_3 ZN_LIGHTS,BLDG_LIGHT_SCH,ACTIVESTORAGE_BOT_3 ZN,32.22,0.0,346.856,10.764,N/A,0.000,0.700,0.200,0.100,1.000,LightsWired,0.000,346.856
 Lights Internal Gains Nominal, ACTIVESTORAGE_BOT_4 ZN_LIGHTS,BLDG_LIGHT_SCH,ACTIVESTORAGE_BOT_4 ZN,13.24,0.0,142.539,10.764,N/A,0.000,0.700,0.200,0.100,1.000,LightsWired,0.000,142.539
 Lights Internal Gains Nominal, ACTIVESTORAGE_MID_1 ZN_LIGHTS,BLDG_LIGHT_SCH,ACTIVESTORAGE_MID_1 ZN,36.19,0.0,389.495,10.764,N/A,0.000,0.700,0.200,0.100,1.000,LightsWired,0.000,389.495
 Lights Internal Gains Nominal, ACTIVESTORAGE_MID_2 ZN_LIGHTS,BLDG_LIGHT_SCH,ACTIVESTORAGE_MID_2 ZN,32.22,0.0,346.856,10.764,N/A,0.000,0.700,0.200,0.100,1.000,LightsWired,0.000,346.856
 Lights Internal Gains Nominal, ACTIVESTORAGE_MID_3 ZN_LIGHTS,BLDG_LIGHT_SCH,ACTIVESTORAGE_MID_3 ZN,32.22,0.0,346.856,10.764,N/A,0.000,0.700,0.200,0.100,1.000,LightsWired,0.000,346.856
 Lights Internal Gains Nominal, ACTIVESTORAGE_MID_4 ZN_LIGHTS,BLDG_LIGHT_SCH,ACTIVESTORAGE_MID_4 ZN,13.24,0.0,142.539,10.764,N/A,0.000,0.700,0.200,0.100,1.000,LightsWired,0.000,142.539
 Lights Internal Gains Nominal, ACTIVESTORAGE_TOP_1 ZN_LIGHTS,BLDG_LIGHT_SCH,ACTIVESTORAGE_TOP_1 ZN,36.19,0.0,389.495,10.764,N/A,0.000,0.700,0.200,0.100,1.000,LightsWired,0.000,389.495
 Lights Internal Gains Nominal, ACTIVESTORAGE_TOP_2 ZN_LIGHTS,BLDG_LIGHT_SCH,ACTIVESTORAGE_TOP_2 ZN,32.22,0.0,346.856,10.764,N/A,0.000,0.700,0.200,0.100,1.000,LightsWired,0.000,346.856
 Lights Internal Gains Nominal, ACTIVESTORAGE_TOP_3 ZN_LIGHTS,BLDG_LIGHT_SCH,ACTIVESTORAGE_TOP_3 ZN,32.22,0.0,346.856,10.764,N/A,0.000,0.700,0.200,0.100,1.000,LightsWired,0.000,346.856
 Lights Internal Gains Nominal, ACTIVESTORAGE_TOP_4 ZN_LIGHTS,BLDG_LIGHT_SCH,ACTIVESTORAGE_TOP_4 ZN,13.24,0.0,142.539,10.764,N/A,0.000,0.700,0.200,0.100,1.000,LightsWired,0.000,142.539
 Lights Internal Gains Nominal, CLASSROOM_BOT ZN_LIGHTS,BLDG_LIGHT_SCH,CLASSROOM_BOT ZN,29.79,16.0,320.668,10.764,20.042,0.000,0.700,0.200,0.100,1.000,LightsWired,0.000,320.668
 Lights Internal Gains Nominal, CONFROOM_BOT_1 ZN_LIGHTS,BLDG_LIGHT_SCH,CONFROOM_BOT_1 ZN,43.11,23.0,463.984,10.764,20.173,0.000,0.700,0.200,0.100,1.000,LightsWired,0.000,463.984
 Lights Internal Gains Nominal, CONFROOM_BOT_2 ZN_LIGHTS,BLDG_LIGHT_SCH,CONFROOM_BOT_2 ZN,43.11,23.0,463.984,10.764,20.173,0.000,0.700,0.200,0.100,1.000,LightsWired,0.000,463.984
 Lights Internal Gains Nominal, CONFROOM_MID_1 ZN_LIGHTS,BLDG_LIGHT_SCH,CONFROOM_MID_1 ZN,43.11,23.0,463.984,10.764,20.173,0.000,0.700,0.200,0.100,1.000,LightsWired,0.000,463.984
 Lights Internal Gains Nominal, CONFROOM_MID_2 ZN_LIGHTS,BLDG_LIGHT_SCH,CONFROOM_MID_2 ZN,43.11,23.0,463.984,10.764,20.173,0.000,0.700,0.200,0.100,1.000,LightsWired,0.000,463.984
 Lights Internal Gains Nominal, CONFROOM_TOP_1 ZN_LIGHTS,BLDG_LIGHT_SCH,CONFROOM_TOP_1 ZN,43.11,23.0,463.984,10.764,20.173,0.000,0.700,0.200,0.100,1.000,LightsWired,0.000,463.984
 Lights Internal Gains Nominal, CONFROOM_TOP_2 ZN_LIGHTS,BLDG_LIGHT_SCH,CONFROOM_TOP_2 ZN,43.11,23.0,463.984,10.764,20.173,0.000,0.700,0.200,0.100,1.000,LightsWired,0.000,463.984
 Lights Internal Gains Nominal, CORRIDOR_BOT_1 ZN_LIGHTS,BLDG_LIGHT_SCH,CORRIDOR_BOT_1 ZN,74.44,0.0,801.271,10.764,N/A,0.000,0.700,0.200,0.100,1.000,LightsWired,0.000,801.271
 Lights Internal Gains Nominal, CORRIDOR_BOT_2 ZN_LIGHTS,BLDG_LIGHT_SCH,CORRIDOR_BOT_2 ZN,74.44,0.0,801.271,10.764,N/A,0.000,0.700,0.200,0.100,1.000,LightsWired,0.000,801.271
 Lights Internal Gains Nominal, CORRIDOR_MID_1 ZN_LIGHTS,BLDG_LIGHT_SCH,CORRIDOR_MID_1 ZN,74.44,0.0,801.271,10.764,N/A,0.000,0.700,0.200,0.100,1.000,LightsWired,0.000,801.271
 Lights Internal Gains Nominal, CORRIDOR_MID_2 ZN_LIGHTS,BLDG_LIGHT_SCH,CORRIDOR_MID_2 ZN,74.44,0.0,801.271,10.764,N/A,0.000,0.700,0.200,0.100,1.000,LightsWired,0.000,801.271
 Lights Internal Gains Nominal, CORRIDOR_TOP_1 ZN_LIGHTS,BLDG_LIGHT_SCH,CORRIDOR_TOP_1 ZN,74.44,0.0,801.271,10.764,N/A,0.000,0.700,0.200,0.100,1.000,LightsWired,0.000,801.271
 Lights Internal Gains Nominal, CORRIDOR_TOP_2 ZN_LIGHTS,BLDG_LIGHT_SCH,CORRIDOR_TOP_2 ZN,74.44,0.0,801.271,10.764,N/A,0.000,0.700,0.200,0.100,1.000,LightsWired,0.000,801.271
 Lights Internal Gains Nominal, DINING_BOT ZN_LIGHTS,BLDG_LIGHT_SCH,DINING_BOT ZN,22.94,12.0,246.956,10.764,20.580,0.000,0.700,0.200,0.100,1.000,LightsWired,0.000,246.956
 Lights Internal Gains Nominal, DINING_MID ZN_LIGHTS,BLDG_LIGHT_SCH,DINING_MID ZN,22.94,12.0,246.956,10.764,20.580,0.000,0.700,0.200,0.100,1.000,LightsWired,0.000,246.956
 Lights Internal Gains Nominal, DINING_TOP ZN_LIGHTS,BLDG_LIGHT_SCH,DINING_TOP ZN,22.94,12.0,246.956,10.764,20.580,0.000,0.700,0.200,0.100,1.000,LightsWired,0.000,246.956
 Lights Internal Gains Nominal, ENCLOSEDOFFICE_BOT_1 ZN_LIGHTS,BLDG_LIGHT_SCH,ENCLOSEDOFFICE_BOT_1 ZN,31.46,2.0,338.596,10.764,169.298,0.000,0.700,0.200,0.100,1.000,LightsWired,0.000,338.596
 Lights Internal Gains Nominal, ENCLOSEDOFFICE_BOT_2 ZN_LIGHTS,BLDG_LIGHT_SCH,ENCLOSEDOFFICE_BOT_2 ZN,31.44,2.0,338.375,10.764,169.188,0.000,0.700,0.200,0.100,1.000,LightsWired,0.000,338.375
 Lights Internal Gains Nominal, ENCLOSEDOFFICE_BOT_3 ZN_LIGHTS,BLDG_LIGHT_SCH,ENCLOSEDOFFICE_BOT_3 ZN,45.43,2.0,488.995,10.764,244.497,0.000,0.700,0.200,0.100,1.000,LightsWired,0.000,488.995
 Lights Internal Gains Nominal, ENCLOSEDOFFICE_BOT_4 ZN_LIGHTS,BLDG_LIGHT_SCH,ENCLOSEDOFFICE_BOT_4 ZN,45.43,2.0,488.995,10.764,244.497,0.000,0.700,0.200,0.100,1.000,LightsWired,0.000,488.995
 Lights Internal Gains Nominal, ENCLOSEDOFFICE_BOT_5 ZN_LIGHTS,BLDG_LIGHT_SCH,ENCLOSEDOFFICE_BOT_5 ZN,31.45,2.0,338.496,10.764,169.248,0.000,0.700,0.200,0.100,1.000,LightsWired,0.000,338.496
 Lights Internal Gains Nominal, ENCLOSEDOFFICE_BOT_6 ZN_LIGHTS,BLDG_LIGHT_SCH,ENCLOSEDOFFICE_BOT_6 ZN,31.45,2.0,338.496,10.764,169.248,0.000,0.700,0.200,0.100,1.000,LightsWired,0.000,338.496
 Lights Internal Gains Nominal, ENCLOSEDOFFICE_BOT_7 ZN_LIGHTS,BLDG_LIGHT_SCH,ENCLOSEDOFFICE_BOT_7 ZN,31.45,2.0,338.496,10.764,169.248,0.000,0.700,0.200,0.100,1.000,LightsWired,0.000,338.496
 Lights Internal Gains Nominal, ENCLOSEDOFFICE_BOT_8 ZN_LIGHTS,BLDG_LIGHT_SCH,ENCLOSEDOFFICE_BOT_8 ZN,31.44,2.0,338.375,10.764,169.188,0.000,0.700,0.200,0.100,1.000,LightsWired,0.000,338.375
 Lights Internal Gains Nominal, ENCLOSEDOFFICE_BOT_9 ZN_LIGHTS,BLDG_LIGHT_SCH,ENCLOSEDOFFICE_BOT_9 ZN,31.44,2.0,338.375,10.764,169.188,0.000,0.700,0.200,0.100,1.000,LightsWired,0.000,338.375
 Lights Internal Gains Nominal, ENCLOSEDOFFICE_BOT_10 ZN_LIGHTS,BLDG_LIGHT_SCH,ENCLOSEDOFFICE_BOT_10 ZN,31.49,2.0,338.960,10.764,169.480,0.000,0.700,0.200,0.100,1.000,LightsWired,0.000,338.960
 Lights Internal Gains Nominal, ENCLOSEDOFFICE_MID_1 ZN_LIGHTS,BLDG_LIGHT_SCH,ENCLOSEDOFFICE_MID_1 ZN,31.49,2.0,338.960,10.764,169.480,0.000,0.700,0.200,0.100,1.000,LightsWired,0.000,338.960
 Lights Internal Gains Nominal, ENCLOSEDOFFICE_MID_2 ZN_LIGHTS,BLDG_LIGHT_SCH,ENCLOSEDOFFICE_MID_2 ZN,31.49,2.0,338.960,10.764,169.480,0.000,0.700,0.200,0.100,1.000,LightsWired,0.000,338.960
 Lights Internal Gains Nominal, ENCLOSEDOFFICE_MID_3 ZN_LIGHTS,BLDG_LIGHT_SCH,ENCLOSEDOFFICE_MID_3 ZN,42.13,2.0,453.443,10.764,226.721,0.000,0.700,0.200,0.100,1.000,LightsWired,0.000,453.443
 Lights Internal Gains Nominal, ENCLOSEDOFFICE_MID_4 ZN_LIGHTS,BLDG_LIGHT_SCH,ENCLOSEDOFFICE_MID_4 ZN,31.44,2.0,338.375,10.764,169.188,0.000,0.700,0.200,0.100,1.000,LightsWired,0.000,338.375
 Lights Internal Gains Nominal, ENCLOSEDOFFICE_MID_5 ZN_LIGHTS,BLDG_LIGHT_SCH,ENCLOSEDOFFICE_MID_5 ZN,31.44,2.0,338.375,10.764,169.188,0.000,0.700,0.200,0.100,1.000,LightsWired,0.000,338.375
 Lights Internal Gains Nominal, ENCLOSEDOFFICE_MID_6 ZN_LIGHTS,BLDG_LIGHT_SCH,ENCLOSEDOFFICE_MID_6 ZN,31.44,2.0,338.375,10.764,169.188,0.000,0.700,0.200,0.100,1.000,LightsWired,0.000,338.375
 Lights Internal Gains Nominal, ENCLOSEDOFFICE_MID_7 ZN_LIGHTS,BLDG_LIGHT_SCH,ENCLOSEDOFFICE_MID_7 ZN,31.44,2.0,338.375,10.764,169.188,0.000,0.700,0.200,0.100,1.000,LightsWired,0.000,338.375
 Lights Internal Gains Nominal, ENCLOSEDOFFICE_MID_8 ZN_LIGHTS,BLDG_LIGHT_SCH,ENCLOSEDOFFICE_MID_8 ZN,31.44,2.0,338.375,10.764,169.188,0.000,0.700,0.200,0.100,1.000,LightsWired,0.000,338.375
 Lights Internal Gains Nominal, ENCLOSEDOFFICE_MID_9 ZN_LIGHTS,BLDG_LIGHT_SCH,ENCLOSEDOFFICE_MID_9 ZN,31.44,2.0,338.375,10.764,169.188,0.000,0.700,0.200,0.100,1.000,LightsWired,0.000,338.375
 Lights Internal Gains Nominal, ENCLOSEDOFFICE_TOP_1 ZN_LIGHTS,BLDG_LIGHT_SCH,ENCLOSEDOFFICE_TOP_1 ZN,31.46,2.0,338.668,10.764,169.334,0.000,0.700,0.200,0.100,1.000,LightsWired,0.000,338.668
 Lights Internal Gains Nominal, ENCLOSEDOFFICE_TOP_2 ZN_LIGHTS,BLDG_LIGHT_SCH,ENCLOSEDOFFICE_TOP_2 ZN,31.49,2.0,338.960,10.764,169.480,0.000,0.700,0.200,0.100,1.000,LightsWired,0.000,338.960
 Lights Internal Gains Nominal, ENCLOSEDOFFICE_TOP_3 ZN_LIGHTS,BLDG_LIGHT_SCH,ENCLOSEDOFFICE_TOP_3 ZN,42.13,2.0,453.443,10.764,226.721,0.000,0.700,0.200,0.100,1.000,LightsWired,0.000,453.443
 Lights Internal Gains Nominal, ENCLOSEDOFFICE_TOP_4 ZN_LIGHTS,BLDG_LIGHT_SCH,ENCLOSEDOFFICE_TOP_4 ZN,31.46,2.0,338.668,10.764,169.334,0.000,0.700,0.200,0.100,1.000,LightsWired,0.000,338.668
 Lights Internal Gains Nominal, ENCLOSEDOFFICE_TOP_5 ZN_LIGHTS,BLDG_LIGHT_SCH,ENCLOSEDOFFICE_TOP_5 ZN,31.44,2.0,338.375,10.764,169.188,0.000,0.700,0.200,0.100,1.000,LightsWired,0.000,338.375
 Lights Internal Gains Nominal, ENCLOSEDOFFICE_TOP_6 ZN_LIGHTS,BLDG_LIGHT_SCH,ENCLOSEDOFFICE_TOP_6 ZN,31.44,2.0,338.375,10.764,169.188,0.000,0.700,0.200,0.100,1.000,LightsWired,0.000,338.375
 Lights Internal Gains Nominal, ENCLOSEDOFFICE_TOP_7 ZN_LIGHTS,BLDG_LIGHT_SCH,ENCLOSEDOFFICE_TOP_7 ZN,31.44,2.0,338.375,10.764,169.188,0.000,0.700,0.200,0.100,1.000,LightsWired,0.000,338.375
 Lights Internal Gains Nominal, ENCLOSEDOFFICE_TOP_8 ZN_LIGHTS,BLDG_LIGHT_SCH,ENCLOSEDOFFICE_TOP_8 ZN,31.44,2.0,338.375,10.764,169.188,0.000,0.700,0.200,0.100,1.000,LightsWired,0.000,338.375
 Lights Internal Gains Nominal, ENCLOSEDOFFICE_TOP_9 ZN_LIGHTS,BLDG_LIGHT_SCH,ENCLOSEDOFFICE_TOP_9 ZN,31.44,2.0,338.375,10.764,169.188,0.000,0.700,0.200,0.100,1.000,LightsWired,0.000,338.375
 Lights Internal Gains Nominal, LOBBY_BOT ZN_LIGHTS,BLDG_LIGHT_SCH,LOBBY_BOT ZN,61.43,7.0,661.198,10.764,94.457,0.000,0.700,0.200,0.100,1.000,LightsWired,0.000,661.198
 Lights Internal Gains Nominal, LOBBY_MID ZN_LIGHTS,BLDG_LIGHT_SCH,LOBBY_MID ZN,61.43,7.0,661.198,10.764,94.457,0.000,0.700,0.200,0.100,1.000,LightsWired,0.000,661.198
 Lights Internal Gains Nominal, LOBBY_TOP ZN_LIGHTS,BLDG_LIGHT_SCH,LOBBY_TOP ZN,61.43,7.0,661.198,10.764,94.457,0.000,0.700,0.200,0.100,1.000,LightsWired,0.000,661.198
 Lights Internal Gains Nominal, LOUNGE_BOT ZN_LIGHTS,BLDG_LIGHT_SCH,LOUNGE_BOT ZN,89.55,29.0,963.932,10.764,33.239,0.000,0.700,0.200,0.100,1.000,LightsWired,0.000,963.932
 Lights Internal Gains Nominal, MECHANICAL_BOT ZN_LIGHTS,BLDG_LIGHT_SCH,MECHANICAL_BOT ZN,49.81,0.0,536.132,10.764,N/A,0.000,0.700,0.200,0.100,1.000,LightsWired,0.000,536.132
 Lights Internal Gains Nominal, MECHANICAL_MID ZN_LIGHTS,BLDG_LIGHT_SCH,MECHANICAL_MID ZN,49.81,0.0,536.132,10.764,N/A,0.000,0.700,0.200,0.100,1.000,LightsWired,0.000,536.132
 Lights Internal Gains Nominal, MECHANICAL_TOP ZN_LIGHTS,BLDG_LIGHT_SCH,MECHANICAL_TOP ZN,49.81,0.0,536.132,10.764,N/A,0.000,0.700,0.200,0.100,1.000,LightsWired,0.000,536.132
 Lights Internal Gains Nominal, OPENOFFICE_BOT_1 ZN_LIGHTS,BLDG_LIGHT_SCH,OPENOFFICE_BOT_1 ZN,194.10,10.0,2089.317,10.764,208.932,0.000,0.700,0.200,0.100,1.000,LightsWired,0.000,2089.317
 Lights Internal Gains Nominal, OPENOFFICE_BOT_2 ZN_LIGHTS,BLDG_LIGHT_SCH,OPENOFFICE_BOT_2 ZN,211.92,11.0,2281.133,10.764,207.376,0.000,0.700,0.200,0.100,1.000,LightsWired,0.000,2281.133
 Lights Internal Gains Nominal, OPENOFFICE_BOT_3 ZN_LIGHTS,BLDG_LIGHT_SCH,OPENOFFICE_BOT_3 ZN,188.65,10.0,2030.592,10.764,203.059,0.000,0.700,0.200,0.100,1.000,LightsWired,0.000,2030.592
 Lights Internal Gains Nominal, OPENOFFICE_MID_1 ZN_LIGHTS,BLDG_LIGHT_SCH,OPENOFFICE_MID_1 ZN,194.10,10.0,2089.317,10.764,208.932,0.000,0.700,0.200,0.100,1.000,LightsWired,0.000,2089.317
 Lights Internal Gains Nominal, OPENOFFICE_MID_2 ZN_LIGHTS,BLDG_LIGHT_SCH,OPENOFFICE_MID_2 ZN,211.92,11.0,2281.133,10.764,207.376,0.000,0.700,0.200,0.100,1.000,LightsWired,0.000,2281.133
 Lights Internal Gains Nominal, OPENOFFICE_MID_3 ZN_LIGHTS,BLDG_LIGHT_SCH,OPENOFFICE_MID_3 ZN,176.31,9.0,1897.817,10.764,210.869,0.000,0.700,0.200,0.100,1.000,LightsWired,0.000,1897.817
 Lights Internal Gains Nominal, OPENOFFICE_MID_4 ZN_LIGHTS,BLDG_LIGHT_SCH,OPENOFFICE_MID_4 ZN,180.41,10.0,1941.922,10.764,194.192,0.000,0.700,0.200,0.100,1.000,LightsWired,0.000,1941.922
 Lights Internal Gains Nominal, OPENOFFICE_TOP_1 ZN_LIGHTS,BLDG_LIGHT_SCH,OPENOFFICE_TOP_1 ZN,194.10,10.0,2089.317,10.764,208.932,0.000,0.700,0.200,0.100,1.000,LightsWired,0.000,2089.317
 Lights Internal Gains Nominal, OPENOFFICE_TOP_2 ZN_LIGHTS,BLDG_LIGHT_SCH,OPENOFFICE_TOP_2 ZN,211.92,11.0,2281.133,10.764,207.376,0.000,0.700,0.200,0.100,1.000,LightsWired,0.000,2281.133
 Lights Internal Gains Nominal, OPENOFFICE_TOP_3 ZN_LIGHTS,BLDG_LIGHT_SCH,OPENOFFICE_TOP_3 ZN,176.31,9.0,1897.817,10.764,210.869,0.000,0.700,0.200,0.100,1.000,LightsWired,0.000,1897.817
 Lights Internal Gains Nominal, OPENOFFICE_TOP_4 ZN_LIGHTS,BLDG_LIGHT_SCH,OPENOFFICE_TOP_4 ZN,180.41,10.0,1941.922,10.764,194.192,0.000,0.700,0.200,0.100,1.000,LightsWired,0.000,1941.922
 Lights Internal Gains Nominal, RESTROOM_BOT ZN_LIGHTS,BLDG_LIGHT_SCH,RESTROOM_BOT ZN,59.71,0.0,642.669,10.764,N/A,0.000,0.700,0.200,0.100,1.000,LightsWired,0.000,642.669
 Lights Internal Gains Nominal, RESTROOM_MID ZN_LIGHTS,BLDG_LIGHT_SCH,RESTROOM_MID ZN,59.71,0.0,642.669,10.764,N/A,0.000,0.700,0.200,0.100,1.000,LightsWired,0.000,642.669
 Lights Internal Gains Nominal, RESTROOM_TOP ZN_LIGHTS,BLDG_LIGHT_SCH,RESTROOM_TOP ZN,59.71,0.0,642.669,10.764,N/A,0.000,0.700,0.200,0.100,1.000,LightsWired,0.000,642.669
 Lights Internal Gains Nominal, STAIR_BOT_1 ZN_LIGHTS,BLDG_LIGHT_SCH,STAIR_BOT_1 ZN,30.71,0.0,330.516,10.764,N/A,0.000,0.700,0.200,0.100,1.000,LightsWired,0.000,330.516
 Lights Internal Gains Nominal, STAIR_BOT_2 ZN_LIGHTS,BLDG_LIGHT_SCH,STAIR_BOT_2 ZN,30.71,0.0,330.516,10.764,N/A,0.000,0.700,0.200,0.100,1.000,LightsWired,0.000,330.516
 Lights Internal Gains Nominal, STAIR_MID_1 ZN_LIGHTS,BLDG_LIGHT_SCH,STAIR_MID_1 ZN,30.71,0.0,330.516,10.764,N/A,0.000,0.700,0.200,0.100,1.000,LightsWired,0.000,330.516
 Lights Internal Gains Nominal, STAIR_MID_2 ZN_LIGHTS,BLDG_LIGHT_SCH,STAIR_MID_2 ZN,30.71,0.0,330.516,10.764,N/A,0.000,0.700,0.200,0.100,1.000,LightsWired,0.000,330.516
 Lights Internal Gains Nominal, STAIR_TOP_1 ZN_LIGHTS,BLDG_LIGHT_SCH,STAIR_TOP_1 ZN,30.71,0.0,330.516,10.764,N/A,0.000,0.700,0.200,0.100,1.000,LightsWired,0.000,330.516
 Lights Internal Gains Nominal, STAIR_TOP_2 ZN_LIGHTS,BLDG_LIGHT_SCH,STAIR_TOP_2 ZN,30.71,0.0,330.516,10.764,N/A,0.000,0.700,0.200,0.100,1.000,LightsWired,0.000,330.516
! <ElectricEquipment Internal Gains Nominal>,Name,Schedule Name,Zone Name,Zone Floor Area {m2},# Zone Occupants,Equipment Level {W},Equipment/Floor Area {W/m2},Equipment per person {W/person},Fraction Latent,Fraction Radiant,Fraction Lost,Fraction Convected,End-Use SubCategory,Nominal Minimum Equipment Level {W},Nominal Maximum Equipment Level {W}
 ElectricEquipment Internal Gains Nominal, CORE_BOTTOM_ELEVATORS_EQUIP,BLDG_ELEVATORS,LOBBY_BOT ZN,61.43,7.0,32109.890,522.730,4587.127,0.000,0.500,0.000,0.500,ElevatorLift,0.000,22155.824
 ElectricEquipment Internal Gains Nominal, ELEVATORS_LIGHTS_FAN,ELEV_LIGHT_FAN_SCH_24_7,LOBBY_BOT ZN,61.43,7.0,323.800,5.271,46.257,0.000,0.500,0.000,0.500,ElevatorLightsFan,323.800,323.800
 ElectricEquipment Internal Gains Nominal, CLASSROOM_BOT ZN MEDIUMOFFICE - CLASSROOM ELEC EQUIP,BLDG_EQUIP_SCH,CLASSROOM_BOT ZN,29.79,16.0,297.900,10.000,18.619,0.000,0.500,0.000,0.500,General,0.000,297.900
 ElectricEquipment Internal Gains Nominal, ENCLOSEDOFFICE_BOT_7 ZN MEDIUMOFFICE - CLOSEDOFFICE ELEC EQUIP,BLDG_EQUIP_SCH,ENCLOSEDOFFICE_BOT_7 ZN,31.45,2.0,294.492,9.365,147.246,0.000,0.500,0.000,0.500,General,0.000,294.492
 ElectricEquipment Internal Gains Nominal, ENCLOSEDOFFICE_BOT_10 ZN MEDIUMOFFICE - CLOSEDOFFICE ELEC EQUIP,BLDG_EQUIP_SCH,ENCLOSEDOFFICE_BOT_10 ZN,31.49,2.0,294.895,9.365,147.448,0.000,0.500,0.000,0.500,General,0.000,294.895
 ElectricEquipment Internal Gains Nominal, ENCLOSEDOFFICE_BOT_3 ZN MEDIUMOFFICE - CLOSEDOFFICE ELEC EQUIP,BLDG_EQUIP_SCH,ENCLOSEDOFFICE_BOT_3 ZN,45.43,2.0,425.425,9.365,212.713,0.000,0.500,0.000,0.500,General,0.000,425.425
 ElectricEquipment Internal Gains Nominal, ENCLOSEDOFFICE_BOT_4 ZN MEDIUMOFFICE - CLOSEDOFFICE ELEC EQUIP,BLDG_EQUIP_SCH,ENCLOSEDOFFICE_BOT_4 ZN,45.43,2.0,425.425,9.365,212.713,0.000,0.500,0.000,0.500,General,0.000,425.425
 ElectricEquipment Internal Gains Nominal, ENCLOSEDOFFICE_MID_1 ZN MEDIUMOFFICE - CLOSEDOFFICE ELEC EQUIP,BLDG_EQUIP_SCH,ENCLOSEDOFFICE_MID_1 ZN,31.49,2.0,294.895,9.365,147.448,0.000,0.500,0.000,0.500,General,0.000,294.895
 ElectricEquipment Internal Gains Nominal, ENCLOSEDOFFICE_MID_2 ZN MEDIUMOFFICE - CLOSEDOFFICE ELEC EQUIP,BLDG_EQUIP_SCH,ENCLOSEDOFFICE_MID_2 ZN,31.49,2.0,294.895,9.365,147.448,0.000,0.500,0.000,0.500,General,0.000,294.895
 ElectricEquipment Internal Gains Nominal, ENCLOSEDOFFICE_MID_3 ZN MEDIUMOFFICE - CLOSEDOFFICE ELEC EQUIP,BLDG_EQUIP_SCH,ENCLOSEDOFFICE_MID_3 ZN,42.13,2.0,394.495,9.365,197.248,0.000,0.500,0.000,0.500,General,0.000,394.495
 ElectricEquipment Internal Gains Nominal, ENCLOSEDOFFICE_TOP_1 ZN MEDIUMOFFICE - CLOSEDOFFICE ELEC EQUIP,BLDG_EQUIP_SCH,ENCLOSEDOFFICE_TOP_1 ZN,31.46,2.0,294.641,9.365,147.320,0.000,0.500,0.000,0.500,General,0.000,294.641
 ElectricEquipment Internal Gains Nominal, ENCLOSEDOFFICE_TOP_2 ZN MEDIUMOFFICE - CLOSEDOFFICE ELEC EQUIP,BLDG_EQUIP_SCH,ENCLOSEDOFFICE_TOP_2 ZN,31.49,2.0,294.895,9.365,147.448,0.000,0.500,0.000,0.500,General,0.000,294.895
 ElectricEquipment Internal Gains Nominal, ENCLOSEDOFFICE_TOP_3 ZN MEDIUMOFFICE - CLOSEDOFFICE ELEC EQUIP,BLDG_EQUIP_SCH,ENCLOSEDOFFICE_TOP_3 ZN,42.13,2.0,394.495,9.365,197.248,0.000,0.500,0.000,0.500,General,0.000,394.495
 ElectricEquipment Internal Gains Nominal, ENCLOSEDOFFICE_BOT_5 ZN MEDIUMOFFICE - CLOSEDOFFICE ELEC EQUIP,BLDG_EQUIP_SCH,ENCLOSEDOFFICE_BOT_5 ZN,31.45,2.0,294.492,9.365,147.246,0.000,0.500,0.000,0.500,General,0.000,294.492
 ElectricEquipment Internal Gains Nominal, ENCLOSEDOFFICE_BOT_1 ZN MEDIUMOFFICE - CLOSEDOFFICE ELEC EQUIP,BLDG_EQUIP_SCH,ENCLOSEDOFFICE_BOT_1 ZN,31.46,2.0,294.579,9.365,147.289,0.000,0.500,0.000,0.500,General,0.000,294.579
 ElectricEquipment Internal Gains Nominal, ENCLOSEDOFFICE_BOT_9 ZN MEDIUMOFFICE - CLOSEDOFFICE ELEC EQUIP,BLDG_EQUIP_SCH,ENCLOSEDOFFICE_BOT_9 ZN,31.44,2.0,294.386,9.365,147.193,0.000,0.500,0.000,0.500,General,0.000,294.386
 ElectricEquipment Internal Gains Nominal, ENCLOSEDOFFICE_BOT_8 ZN MEDIUMOFFICE - CLOSEDOFFICE ELEC EQUIP,BLDG_EQUIP_SCH,ENCLOSEDOFFICE_BOT_8 ZN,31.44,2.0,294.386,9.365,147.193,0.000,0.500,0.000,0.500,General,0.000,294.386
 ElectricEquipment Internal Gains Nominal, ENCLOSEDOFFICE_BOT_2 ZN MEDIUMOFFICE - CLOSEDOFFICE ELEC EQUIP,BLDG_EQUIP_SCH,ENCLOSEDOFFICE_BOT_2 ZN,31.44,2.0,294.386,9.365,147.193,0.000,0.500,0.000,0.500,General,0.000,294.386
 ElectricEquipment Internal Gains Nominal, ENCLOSEDOFFICE_MID_4 ZN MEDIUMOFFICE - CLOSEDOFFICE ELEC EQUIP,BLDG_EQUIP_SCH,ENCLOSEDOFFICE_MID_4 ZN,31.44,2.0,294.386,9.365,147.193,0.000,0.500,0.000,0.500,General,0.000,294.386
 ElectricEquipment Internal Gains Nominal, ENCLOSEDOFFICE_MID_5 ZN MEDIUMOFFICE - CLOSEDOFFICE ELEC EQUIP,BLDG_EQUIP_SCH,ENCLOSEDOFFICE_MID_5 ZN,31.44,2.0,294.386,9.365,147.193,0.000,0.500,0.000,0.500,General,0.000,294.386
 ElectricEquipment Internal Gains Nominal, ENCLOSEDOFFICE_MID_6 ZN MEDIUMOFFICE - CLOSEDOFFICE ELEC EQUIP,BLDG_EQUIP_SCH,ENCLOSEDOFFICE_MID_6 ZN,31.44,2.0,294.386,9.365,147.193,0.000,0.500,0.000,0.500,General,0.000,294.386
 ElectricEquipment Internal Gains Nominal, ENCLOSEDOFFICE_MID_7 ZN MEDIUMOFFICE - CLOSEDOFFICE ELEC EQUIP,BLDG_EQUIP_SCH,ENCLOSEDOFFICE_MID_7 ZN,31.44,2.0,294.386,9.365,147.193,0.000,0.500,0.000,0.500,General,0.000,294.386
 ElectricEquipment Internal Gains Nominal, ENCLOSEDOFFICE_MID_8 ZN MEDIUMOFFICE - CLOSEDOFFICE ELEC EQUIP,BLDG_EQUIP_SCH,ENCLOSEDOFFICE_MID_8 ZN,31.44,2.0,294.386,9.365,147.193,0.000,0.500,0.000,0.500,General,0.000,294.386
 ElectricEquipment Internal Gains Nominal, ENCLOSEDOFFICE_MID_9 ZN MEDIUMOFFICE - CLOSEDOFFICE ELEC EQUIP,BLDG_EQUIP_SCH,ENCLOSEDOFFICE_MID_9 ZN,31.44,2.0,294.386,9.365,147.193,0.000,0.500,0.000,0.500,General,0.000,294.386
 ElectricEquipment Internal Gains Nominal, ENCLOSEDOFFICE_TOP_4 ZN MEDIUMOFFICE - CLOSEDOFFICE ELEC EQUIP,BLDG_EQUIP_SCH,ENCLOSEDOFFICE_TOP_4 ZN,31.46,2.0,294.641,9.365,147.320,0.000,0.500,0.000,0.500,General,0.000,294.641
 ElectricEquipment Internal Gains Nominal, ENCLOSEDOFFICE_TOP_5 ZN MEDIUMOFFICE - CLOSEDOFFICE ELEC EQUIP,BLDG_EQUIP_SCH,ENCLOSEDOFFICE_TOP_5 ZN,31.44,2.0,294.386,9.365,147.193,0.000,0.500,0.000,0.500,General,0.000,294.386
 ElectricEquipment Internal Gains Nominal, ENCLOSEDOFFICE_TOP_6 ZN MEDIUMOFFICE - CLOSEDOFFICE ELEC EQUIP,BLDG_EQUIP_SCH,ENCLOSEDOFFICE_TOP_6 ZN,31.44,2.0,294.386,9.365,147.193,0.000,0.500,0.000,0.500,General,0.000,294.386
 ElectricEquipment Internal Gains Nominal, ENCLOSEDOFFICE_TOP_7 ZN MEDIUMOFFICE - CLOSEDOFFICE ELEC EQUIP,BLDG_EQUIP_SCH,ENCLOSEDOFFICE_TOP_7 ZN,31.44,2.0,294.386,9.365,147.193,0.000,0.500,0.000,0.500,General,0.000,294.386
 ElectricEquipment Internal Gains Nominal, ENCLOSEDOFFICE_TOP_8 ZN MEDIUMOFFICE - CLOSEDOFFICE ELEC EQUIP,BLDG_EQUIP_SCH,ENCLOSEDOFFICE_TOP_8 ZN,31.44,2.0,294.386,9.365,147.193,0.000,0.500,0.000,0.500,General,0.000,294.386
 ElectricEquipment Internal Gains Nominal, ENCLOSEDOFFICE_TOP_9 ZN MEDIUMOFFICE - CLOSEDOFFICE ELEC EQUIP,BLDG_EQUIP_SCH,ENCLOSEDOFFICE_TOP_9 ZN,31.44,2.0,294.386,9.365,147.193,0.000,0.500,0.000,0.500,General,0.000,294.386
 ElectricEquipment Internal Gains Nominal, CONFROOM_BOT_1 ZN MEDIUMOFFICE - CONFERENCE ELEC EQUIP,BLDG_EQUIP_SCH,CONFROOM_BOT_1 ZN,43.11,23.0,463.984,10.764,20.173,0.000,0.500,0.000,0.500,General,0.000,463.984
 ElectricEquipment Internal Gains Nominal, CONFROOM_BOT_2 ZN MEDIUMOFFICE - CONFERENCE ELEC EQUIP,BLDG_EQUIP_SCH,CONFROOM_BOT_2 ZN,43.11,23.0,463.984,10.764,20.173,0.000,0.500,0.000,0.500,General,0.000,463.984
 ElectricEquipment Internal Gains Nominal, CONFROOM_MID_1 ZN MEDIUMOFFICE - CONFERENCE ELEC EQUIP,BLDG_EQUIP_SCH,CONFROOM_MID_1 ZN,43.11,23.0,463.984,10.764,20.173,0.000,0.500,0.000,0.500,General,0.000,463.984
 ElectricEquipment Internal Gains Nominal, CONFROOM_MID_2 ZN MEDIUMOFFICE - CONFERENCE ELEC EQUIP,BLDG_EQUIP_SCH,CONFROOM_MID_2 ZN,43.11,23.0,463.984,10.764,20.173,0.000,0.500,0.000,0.500,General,0.000,463.984
 ElectricEquipment Internal Gains Nominal, CONFROOM_TOP_1 ZN MEDIUMOFFICE - CONFERENCE ELEC EQUIP,BLDG_EQUIP_SCH,CONFROOM_TOP_1 ZN,43.11,23.0,463.984,10.764,20.173,0.000,0.500,0.000,0.500,General,0.000,463.984
 ElectricEquipment Internal Gains Nominal, CONFROOM_TOP_2 ZN MEDIUMOFFICE - CONFERENCE ELEC EQUIP,BLDG_EQUIP_SCH,CONFROOM_TOP_2 ZN,43.11,23.0,463.984,10.764,20.173,0.000,0.500,0.000,0.500,General,0.000,463.984
 ElectricEquipment Internal Gains Nominal, CORRIDOR_BOT_1 ZN MEDIUMOFFICE - CORRIDOR ELEC EQUIP,BLDG_EQUIP_SCH,CORRIDOR_BOT_1 ZN,74.44,0.0,232.369,3.122,N/A,0.000,0.500,0.000,0.500,General,0.000,232.369
 ElectricEquipment Internal Gains Nominal, CORRIDOR_BOT_2 ZN MEDIUMOFFICE - CORRIDOR ELEC EQUIP,BLDG_EQUIP_SCH,CORRIDOR_BOT_2 ZN,74.44,0.0,232.369,3.122,N/A,0.000,0.500,0.000,0.500,General,0.000,232.369
[...]
HeatTransfer Surface,iz-ENCLOSEDOFFICE_TOP_4_ZN_CEILING,Floor,,CTF - ConductionTransferFunction,DROPCEILING,4.488,2.147,,31.46,31.46,31.46,0.00,180.00,4.50,6.99,0.00,ENCLOSEDOFFICE_TOP_4_ZN_CEILING,Other/Same Surface Int Conv,ASHRAETARP,NoSun,NoWind,1.00,0.00,1.00,0.00,4
HeatTransfer Surface,iz-ENCLOSEDOFFICE_TOP_5_ZN_CEILING,Floor,,CTF - ConductionTransferFunction,DROPCEILING,4.488,2.147,,31.44,31.44,31.44,0.00,180.00,4.50,6.98,0.00,ENCLOSEDOFFICE_TOP_5_ZN_CEILING,Other/Same Surface Int Conv,ASHRAETARP,NoSun,NoWind,1.00,0.00,1.00,0.00,4
HeatTransfer Surface,iz-ENCLOSEDOFFICE_TOP_6_ZN_CEILING,Floor,,CTF - ConductionTransferFunction,DROPCEILING,4.488,2.147,,31.44,31.44,31.44,0.00,180.00,4.50,6.98,0.00,ENCLOSEDOFFICE_TOP_6_ZN_CEILING,Other/Same Surface Int Conv,ASHRAETARP,NoSun,NoWind,1.00,0.00,1.00,0.00,4
HeatTransfer Surface,iz-ENCLOSEDOFFICE_TOP_7_ZN_CEILING,Floor,,CTF - ConductionTransferFunction,DROPCEILING,4.488,2.147,,31.44,31.44,31.44,0.00,180.00,4.50,6.98,0.00,ENCLOSEDOFFICE_TOP_7_ZN_CEILING,Other/Same Surface Int Conv,ASHRAETARP,NoSun,NoWind,1.00,0.00,1.00,0.00,4
HeatTransfer Surface,iz-ENCLOSEDOFFICE_TOP_8_ZN_CEILING,Floor,,CTF - ConductionTransferFunction,DROPCEILING,4.488,2.147,,31.44,31.44,31.44,0.00,180.00,4.50,6.98,0.00,ENCLOSEDOFFICE_TOP_8_ZN_CEILING,Other/Same Surface Int Conv,ASHRAETARP,NoSun,NoWind,1.00,0.00,1.00,0.00,4
HeatTransfer Surface,iz-ENCLOSEDOFFICE_TOP_9_ZN_CEILING,Floor,,CTF - ConductionTransferFunction,DROPCEILING,4.488,2.147,,31.44,31.44,31.44,0.00,180.00,4.50,6.98,0.00,ENCLOSEDOFFICE_TOP_9_ZN_CEILING,Other/Same Surface Int Conv,ASHRAETARP,NoSun,NoWind,1.00,0.00,1.00,0.00,4
HeatTransfer Surface,iz-LOBBY_TOP_ZN_CEILING,Floor,,CTF - ConductionTransferFunction,DROPCEILING,4.488,2.147,,61.43,61.43,61.43,0.00,180.00,3.05,20.15,0.00,LOBBY_TOP_ZN_CEILING,Other/Same Surface Int Conv,ASHRAETARP,NoSun,NoWind,1.00,0.00,1.00,0.00,4
HeatTransfer Surface,iz-MECHANICAL_TOP_ZN_CEILING,Floor,,CTF - ConductionTransferFunction,DROPCEILING,4.488,2.147,,49.81,49.81,49.81,0.00,180.00,4.45,11.19,0.00,MECHANICAL_TOP_ZN_CEILING,Other/Same Surface Int Conv,ASHRAETARP,NoSun,NoWind,1.00,0.00,1.00,0.00,4
HeatTransfer Surface,iz-OPENOFFICE_TOP_1_ZN_CEILING,Floor,,CTF - ConductionTransferFunction,DROPCEILING,4.488,2.147,,194.10,194.10,194.10,0.00,180.00,9.63,20.15,0.00,OPENOFFICE_TOP_1_ZN_CEILING,Other/Same Surface Int Conv,ASHRAETARP,NoSun,NoWind,1.00,0.00,1.00,0.00,4
HeatTransfer Surface,iz-OPENOFFICE_TOP_2_ZN_CEILING,Floor,,CTF - ConductionTransferFunction,DROPCEILING,4.488,2.147,,211.92,211.92,211.92,0.00,180.00,10.52,20.15,0.00,OPENOFFICE_TOP_2_ZN_CEILING,Other/Same Surface Int Conv,ASHRAETARP,NoSun,NoWind,1.00,0.00,1.00,0.00,4
HeatTransfer Surface,iz-OPENOFFICE_TOP_3_ZN_CEILING,Floor,,CTF - ConductionTransferFunction,DROPCEILING,4.488,2.147,,176.31,176.31,176.31,0.00,180.00,33.02,5.34,0.00,OPENOFFICE_TOP_3_ZN_CEILING,Other/Same Surface Int Conv,ASHRAETARP,NoSun,NoWind,1.00,0.00,1.00,0.00,4
HeatTransfer Surface,iz-OPENOFFICE_TOP_4_ZN_CEILING,Floor,,CTF - ConductionTransferFunction,DROPCEILING,4.488,2.147,,180.41,180.41,180.41,0.00,180.00,33.77,5.34,0.00,OPENOFFICE_TOP_4_ZN_CEILING,Other/Same Surface Int Conv,ASHRAETARP,NoSun,NoWind,1.00,0.00,1.00,0.00,4
HeatTransfer Surface,iz-RESTROOM_TOP_ZN_CEILING,Floor,,CTF - ConductionTransferFunction,DROPCEILING,4.488,2.147,,59.71,59.71,59.71,0.00,180.00,5.33,11.19,0.00,RESTROOM_TOP_ZN_CEILING,Other/Same Surface Int Conv,ASHRAETARP,NoSun,NoWind,1.00,0.00,1.00,0.00,4
HeatTransfer Surface,iz-STAIR_TOP_1_ZN_CEILING,Floor,,CTF - ConductionTransferFunction,DROPCEILING,4.488,2.147,,30.71,30.71,30.71,0.00,180.00,2.74,11.19,0.00,STAIR_TOP_1_ZN_CEILING,Other/Same Surface Int Conv,ASHRAETARP,NoSun,NoWind,1.00,0.00,1.00,0.00,4
HeatTransfer Surface,iz-STAIR_TOP_2_ZN_CEILING,Floor,,CTF - ConductionTransferFunction,DROPCEILING,4.488,2.147,,30.71,30.71,30.71,0.00,180.00,2.74,11.19,0.00,STAIR_TOP_2_ZN_CEILING,Other/Same Surface Int Conv,ASHRAETARP,NoSun,NoWind,1.00,0.00,1.00,0.00,4
HeatTransfer Surface,BUILDING_ROOF,Roof,,CTF - ConductionTransferFunction,NONRES_ROOF,0.376,0.351,,1660.74,1660.74,1660.74,180.00,0.00,49.91,33.27,0.00,ExternalEnvironment,ASHRAETARP,ASHRAETARP,SunExposed,WindExposed,0.00,1.00,0.00,1.00,4
! <Environment>,Environment Name,Environment Type, Start Date, End Date, Start DayOfWeek, Duration {#days}, Source:Start DayOfWeek,  Use Daylight Saving, Use Holidays, Apply Weekend Holiday Rule,  Use Rain Values, Use Snow Values, Sky Temperature Model
! <Environment:Special Days>, Special Day Name, Special Day Type, Source, Start Date, Duration {#days}
! <Environment:Daylight Saving>, Daylight Saving Indicator, Source, Start Date, End Date
! <Environment:WarmupDays>, NumberofWarmupDays
Environment,SPAWN-RUNPERIOD,WeatherFileRunPeriod,01/01/2017,12/31/2217,Sunday,73365,Use RunPeriod Specified Day,No,No,No,Yes,Yes,Clark and Allen
Environment:Daylight Saving,Yes,InputFile,03/12,11/05
Environment:Special Days,CHRISTMAS,Holiday,InputFile,12/25,  1Environment:Special Days,COLUMBUS DAY,Holiday,InputFile,10/09,  1Environment:Special Days,INDEPENDENCE DAY,Holiday,InputFile,07/04,  1Environment:Special Days,LABOR DAY,Holiday,InputFile,09/04,  1Environment:Special Days,MLK DAY,Holiday,InputFile,01/16,  1Environment:Special Days,MEMORIAL DAY,Holiday,InputFile,05/29,  1Environment:Special Days,NEW YEARS DAY,Holiday,InputFile,01/01,  1Environment:Special Days,PRESIDENTS DAY,Holiday,InputFile,02/20,  1Environment:Special Days,THANKSGIVING,Holiday,InputFile,11/23,  1Environment:Special Days,VETERANS DAY,Holiday,InputFile,11/11,  1Environment:WarmupDays, 24
! <Tabular Report>,Style,Unit Conversion
Tabular Report,Commaandhtml,commaandhtml
! <Warmup Convergence Information>,Zone Name,Environment Type/Name,Average Warmup Temperature Difference {deltaC},Std Dev Warmup Temperature Difference {deltaC},Max Temperature Pass/Fail Convergence,Min Temperature Pass/Fail Convergence,Average Warmup Load Difference {W},Std Dev Warmup Load Difference {W},Heating Load Pass/Fail Convergence,Cooling Load Pass/Fail Convergence
 Warmup Convergence Information,ACTIVESTORAGE_BOT_1 ZN,RunPeriod: SPAWN-RUNPERIOD,6.7326072591E-003,2.1627194247E-003,Pass,Pass,0.0000000000,0.0000000000,Pass,Pass
 Warmup Convergence Information,ACTIVESTORAGE_BOT_2 ZN,RunPeriod: SPAWN-RUNPERIOD,6.6675593221E-003,2.1329559069E-003,Pass,Pass,0.0000000000,0.0000000000,Pass,Pass
 Warmup Convergence Information,ACTIVESTORAGE_BOT_3 ZN,RunPeriod: SPAWN-RUNPERIOD,4.2235138434E-003,1.3777481076E-003,Pass,Pass,0.0000000000,0.0000000000,Pass,Pass
 Warmup Convergence Information,ACTIVESTORAGE_BOT_4 ZN,RunPeriod: SPAWN-RUNPERIOD,4.1313583511E-003,1.4051917131E-003,Pass,Pass,0.0000000000,0.0000000000,Pass,Pass
 Warmup Convergence Information,ACTIVESTORAGE_MID_1 ZN,RunPeriod: SPAWN-RUNPERIOD,6.3663878729E-002,0.3042510628,Pass,Pass,0.0000000000,0.0000000000,Pass,Pass
 Warmup Convergence Information,ACTIVESTORAGE_MID_2 ZN,RunPeriod: SPAWN-RUNPERIOD,6.4320112836E-002,0.3065128367,Pass,Pass,0.0000000000,0.0000000000,Pass,Pass
 Warmup Convergence Information,ACTIVESTORAGE_MID_3 ZN,RunPeriod: SPAWN-RUNPERIOD,6.2611263318E-002,0.3063869340,Pass,Pass,0.0000000000,0.0000000000,Pass,Pass
 Warmup Convergence Information,ACTIVESTORAGE_MID_4 ZN,RunPeriod: SPAWN-RUNPERIOD,7.3981131954E-002,0.3509442454,Pass,Pass,0.0000000000,0.0000000000,Pass,Pass
 Warmup Convergence Information,ACTIVESTORAGE_TOP_1 ZN,RunPeriod: SPAWN-RUNPERIOD,3.2906999357E-002,1.9603908456E-002,Pass,Pass,0.0000000000,0.0000000000,Pass,Pass
 Warmup Convergence Information,ACTIVESTORAGE_TOP_2 ZN,RunPeriod: SPAWN-RUNPERIOD,3.2772380674E-002,1.9440766284E-002,Pass,Pass,0.0000000000,0.0000000000,Pass,Pass
 Warmup Convergence Information,ACTIVESTORAGE_TOP_3 ZN,RunPeriod: SPAWN-RUNPERIOD,3.0116764243E-002,1.8171950351E-002,Pass,Pass,0.0000000000,0.0000000000,Pass,Pass
 Warmup Convergence Information,ACTIVESTORAGE_TOP_4 ZN,RunPeriod: SPAWN-RUNPERIOD,2.9253050276E-002,1.6842757782E-002,Pass,Pass,0.0000000000,0.0000000000,Pass,Pass
 Warmup Convergence Information,CLASSROOM_BOT ZN,RunPeriod: SPAWN-RUNPERIOD,3.0192143540E-002,2.5931062966E-002,Pass,Pass,0.0000000000,0.0000000000,Pass,Pass
 Warmup Convergence Information,CONFROOM_BOT_1 ZN,RunPeriod: SPAWN-RUNPERIOD,0.1474178701,0.1583254751,Pass,Pass,0.0000000000,0.0000000000,Pass,Pass
 Warmup Convergence Information,CONFROOM_BOT_2 ZN,RunPeriod: SPAWN-RUNPERIOD,0.1386341229,0.1756252532,Pass,Pass,0.0000000000,0.0000000000,Pass,Pass
 Warmup Convergence Information,CONFROOM_MID_1 ZN,RunPeriod: SPAWN-RUNPERIOD,0.1591015574,0.2590479433,Pass,Pass,0.0000000000,0.0000000000,Pass,Pass
 Warmup Convergence Information,CONFROOM_MID_2 ZN,RunPeriod: SPAWN-RUNPERIOD,0.1519867717,0.2666287091,Pass,Pass,0.0000000000,0.0000000000,Pass,Pass
 Warmup Convergence Information,CONFROOM_TOP_1 ZN,RunPeriod: SPAWN-RUNPERIOD,0.1621841402,0.1571164089,Pass,Pass,0.0000000000,0.0000000000,Pass,Pass
 Warmup Convergence Information,CONFROOM_TOP_2 ZN,RunPeriod: SPAWN-RUNPERIOD,0.1515850133,0.1697454468,Pass,Pass,0.0000000000,0.0000000000,Pass,Pass
 Warmup Convergence Information,CORRIDOR_BOT_1 ZN,RunPeriod: SPAWN-RUNPERIOD,3.5134544322E-002,2.2555665464E-002,Pass,Pass,0.0000000000,0.0000000000,Pass,Pass
 Warmup Convergence Information,CORRIDOR_BOT_2 ZN,RunPeriod: SPAWN-RUNPERIOD,1.3355376762E-002,8.1886682910E-003,Pass,Pass,0.0000000000,0.0000000000,Pass,Pass
 Warmup Convergence Information,CORRIDOR_MID_1 ZN,RunPeriod: SPAWN-RUNPERIOD,6.0966177004E-002,0.2494254020,Pass,Pass,0.0000000000,0.0000000000,Pass,Pass
 Warmup Convergence Information,CORRIDOR_MID_2 ZN,RunPeriod: SPAWN-RUNPERIOD,4.1844296557E-002,0.2505880786,Pass,Pass,0.0000000000,0.0000000000,Pass,Pass
 Warmup Convergence Information,CORRIDOR_TOP_1 ZN,RunPeriod: SPAWN-RUNPERIOD,5.8887224436E-002,3.3571658770E-002,Pass,Pass,0.0000000000,0.0000000000,Pass,Pass
 Warmup Convergence Information,CORRIDOR_TOP_2 ZN,RunPeriod: SPAWN-RUNPERIOD,3.7226591906E-002,1.7866568943E-002,Pass,Pass,0.0000000000,0.0000000000,Pass,Pass
 Warmup Convergence Information,DINING_BOT ZN,RunPeriod: SPAWN-RUNPERIOD,4.0807400071E-003,1.3825660686E-003,Pass,Pass,0.0000000000,0.0000000000,Pass,Pass
 Warmup Convergence Information,DINING_MID ZN,RunPeriod: SPAWN-RUNPERIOD,3.8132252334E-002,0.2516991930,Pass,Pass,0.0000000000,0.0000000000,Pass,Pass
 Warmup Convergence Information,DINING_TOP ZN,RunPeriod: SPAWN-RUNPERIOD,3.0817012198E-002,1.7467611103E-002,Pass,Pass,0.0000000000,0.0000000000,Pass,Pass
 Warmup Convergence Information,ENCLOSEDOFFICE_BOT_1 ZN,RunPeriod: SPAWN-RUNPERIOD,9.4479474763E-002,0.1046698797,Pass,Pass,0.0000000000,0.0000000000,Pass,Pass
 Warmup Convergence Information,ENCLOSEDOFFICE_BOT_2 ZN,RunPeriod: SPAWN-RUNPERIOD,9.3204189670E-002,0.1322721521,Pass,Pass,0.0000000000,0.0000000000,Pass,Pass
 Warmup Convergence Information,ENCLOSEDOFFICE_BOT_3 ZN,RunPeriod: SPAWN-RUNPERIOD,0.1257489102,0.1329631444,Pass,Pass,0.0000000000,0.0000000000,Pass,Pass
 Warmup Convergence Information,ENCLOSEDOFFICE_BOT_4 ZN,RunPeriod: SPAWN-RUNPERIOD,0.1266078345,0.1345617053,Pass,Pass,0.0000000000,0.0000000000,Pass,Pass
 Warmup Convergence Information,ENCLOSEDOFFICE_BOT_5 ZN,RunPeriod: SPAWN-RUNPERIOD,8.8624425360E-002,0.1040484955,Pass,Pass,0.0000000000,0.0000000000,Pass,Pass
 Warmup Convergence Information,ENCLOSEDOFFICE_BOT_6 ZN,RunPeriod: SPAWN-RUNPERIOD,8.6406076070E-002,0.1051031776,Pass,Pass,0.0000000000,0.0000000000,Pass,Pass
 Warmup Convergence Information,ENCLOSEDOFFICE_BOT_7 ZN,RunPeriod: SPAWN-RUNPERIOD,9.4165379693E-002,0.1032840733,Pass,Pass,0.0000000000,0.0000000000,Pass,Pass
 Warmup Convergence Information,ENCLOSEDOFFICE_BOT_8 ZN,RunPeriod: SPAWN-RUNPERIOD,8.6193568194E-002,0.1298356486,Pass,Pass,0.0000000000,0.0000000000,Pass,Pass
 Warmup Convergence Information,ENCLOSEDOFFICE_BOT_9 ZN,RunPeriod: SPAWN-RUNPERIOD,8.6464004360E-002,0.1308824563,Pass,Pass,0.0000000000,0.0000000000,Pass,Pass
 Warmup Convergence Information,ENCLOSEDOFFICE_BOT_10 ZN,RunPeriod: SPAWN-RUNPERIOD,8.7535094148E-002,0.1286932324,Pass,Pass,0.0000000000,0.0000000000,Pass,Pass
 Warmup Convergence Information,ENCLOSEDOFFICE_MID_1 ZN,RunPeriod: SPAWN-RUNPERIOD,0.1007423696,0.2502625893,Pass,Pass,0.0000000000,0.0000000000,Pass,Pass
 Warmup Convergence Information,ENCLOSEDOFFICE_MID_2 ZN,RunPeriod: SPAWN-RUNPERIOD,0.1105983404,0.2531578357,Pass,Pass,0.0000000000,0.0000000000,Pass,Pass
 Warmup Convergence Information,ENCLOSEDOFFICE_MID_3 ZN,RunPeriod: SPAWN-RUNPERIOD,5.9589870261E-002,0.2504666115,Pass,Pass,0.0000000000,0.0000000000,Pass,Pass
 Warmup Convergence Information,ENCLOSEDOFFICE_MID_4 ZN,RunPeriod: SPAWN-RUNPERIOD,9.0211597479E-002,9.6660561071E-002,Pass,Pass,0.0000000000,0.0000000000,Pass,Pass
 Warmup Convergence Information,ENCLOSEDOFFICE_MID_5 ZN,RunPeriod: SPAWN-RUNPERIOD,8.9010999379E-002,9.7384663650E-002,Pass,Pass,0.0000000000,0.0000000000,Pass,Pass
 Warmup Convergence Information,ENCLOSEDOFFICE_MID_6 ZN,RunPeriod: SPAWN-RUNPERIOD,9.7611865881E-002,9.5858064064E-002,Pass,Pass,0.0000000000,0.0000000000,Pass,Pass
 Warmup Convergence Information,ENCLOSEDOFFICE_MID_7 ZN,RunPeriod: SPAWN-RUNPERIOD,8.8712034954E-002,0.1245486735,Pass,Pass,0.0000000000,0.0000000000,Pass,Pass
 Warmup Convergence Information,ENCLOSEDOFFICE_MID_8 ZN,RunPeriod: SPAWN-RUNPERIOD,8.7608224553E-002,0.1274398886,Pass,Pass,0.0000000000,0.0000000000,Pass,Pass
 Warmup Convergence Information,ENCLOSEDOFFICE_MID_9 ZN,RunPeriod: SPAWN-RUNPERIOD,8.7367055344E-002,0.1238753567,Pass,Pass,0.0000000000,0.0000000000,Pass,Pass
 Warmup Convergence Information,ENCLOSEDOFFICE_TOP_1 ZN,RunPeriod: SPAWN-RUNPERIOD,0.1127314882,0.1039887583,Pass,Pass,0.0000000000,0.0000000000,Pass,Pass
 Warmup Convergence Information,ENCLOSEDOFFICE_TOP_2 ZN,RunPeriod: SPAWN-RUNPERIOD,9.7240548749E-002,0.1300954731,Pass,Pass,0.0000000000,0.0000000000,Pass,Pass
 Warmup Convergence Information,ENCLOSEDOFFICE_TOP_3 ZN,RunPeriod: SPAWN-RUNPERIOD,4.8324461349E-002,3.5338933791E-002,Pass,Pass,0.0000000000,0.0000000000,Pass,Pass
 Warmup Convergence Information,ENCLOSEDOFFICE_TOP_4 ZN,RunPeriod: SPAWN-RUNPERIOD,0.1061492112,0.1026691113,Pass,Pass,0.0000000000,0.0000000000,Pass,Pass
 Warmup Convergence Information,ENCLOSEDOFFICE_TOP_5 ZN,RunPeriod: SPAWN-RUNPERIOD,0.1045102168,0.1020315273,Pass,Pass,0.0000000000,0.0000000000,Pass,Pass
 Warmup Convergence Information,ENCLOSEDOFFICE_TOP_6 ZN,RunPeriod: SPAWN-RUNPERIOD,0.1112970028,0.1007380112,Pass,Pass,0.0000000000,0.0000000000,Pass,Pass
 Warmup Convergence Information,ENCLOSEDOFFICE_TOP_7 ZN,RunPeriod: SPAWN-RUNPERIOD,8.7081116986E-002,0.1213328821,Pass,Pass,0.0000000000,0.0000000000,Pass,Pass
 Warmup Convergence Information,ENCLOSEDOFFICE_TOP_8 ZN,RunPeriod: SPAWN-RUNPERIOD,8.7310822820E-002,0.1220127124,Pass,Pass,0.0000000000,0.0000000000,Pass,Pass
 Warmup Convergence Information,ENCLOSEDOFFICE_TOP_9 ZN,RunPeriod: SPAWN-RUNPERIOD,8.9074367458E-002,0.1214875878,Pass,Pass,0.0000000000,0.0000000000,Pass,Pass
 Warmup Convergence Information,FIRSTFLOOR_PLENUM ZN,RunPeriod: SPAWN-RUNPERIOD,2.2329789778E-002,1.5140507449E-002,Pass,Pass,0.0000000000,0.0000000000,Pass,Pass
 Warmup Convergence Information,LOBBY_BOT ZN,RunPeriod: SPAWN-RUNPERIOD,4.3559195722E-003,1.4328185921E-003,Pass,Pass,0.0000000000,0.0000000000,Pass,Pass
 Warmup Convergence Information,LOBBY_MID ZN,RunPeriod: SPAWN-RUNPERIOD,5.5078561829E-002,0.3138811136,Pass,Pass,0.0000000000,0.0000000000,Pass,Pass
 Warmup Convergence Information,LOBBY_TOP ZN,RunPeriod: SPAWN-RUNPERIOD,3.0800753165E-002,1.8473625832E-002,Pass,Pass,0.0000000000,0.0000000000,Pass,Pass
 Warmup Convergence Information,LOUNGE_BOT ZN,RunPeriod: SPAWN-RUNPERIOD,0.1267749319,0.1327334936,Pass,Pass,0.0000000000,0.0000000000,Pass,Pass
 Warmup Convergence Information,MECHANICAL_BOT ZN,RunPeriod: SPAWN-RUNPERIOD,3.1295594884E-003,1.3590338371E-003,Pass,Pass,0.0000000000,0.0000000000,Pass,Pass
 Warmup Convergence Information,MECHANICAL_MID ZN,RunPeriod: SPAWN-RUNPERIOD,8.0596921043E-002,0.3257939768,Pass,Pass,0.0000000000,0.0000000000,Pass,Pass
 Warmup Convergence Information,MECHANICAL_TOP ZN,RunPeriod: SPAWN-RUNPERIOD,3.0473389009E-002,1.8719492622E-002,Pass,Pass,0.0000000000,0.0000000000,Pass,Pass
 Warmup Convergence Information,MIDFLOOR_PLENUM ZN,RunPeriod: SPAWN-RUNPERIOD,2.4909644150E-002,2.0539452417E-002,Pass,Pass,0.0000000000,0.0000000000,Pass,Pass
 Warmup Convergence Information,OPENOFFICE_BOT_1 ZN,RunPeriod: SPAWN-RUNPERIOD,5.7411518709E-003,1.6588554656E-003,Pass,Pass,0.0000000000,0.0000000000,Pass,Pass
 Warmup Convergence Information,OPENOFFICE_BOT_2 ZN,RunPeriod: SPAWN-RUNPERIOD,5.6486400275E-003,1.6369140405E-003,Pass,Pass,0.0000000000,0.0000000000,Pass,Pass
 Warmup Convergence Information,OPENOFFICE_BOT_3 ZN,RunPeriod: SPAWN-RUNPERIOD,2.5394233981E-002,2.8389587957E-002,Pass,Pass,0.0000000000,0.0000000000,Pass,Pass
 Warmup Convergence Information,OPENOFFICE_MID_1 ZN,RunPeriod: SPAWN-RUNPERIOD,4.4512955464E-002,0.2959256822,Pass,Pass,0.0000000000,0.0000000000,Pass,Pass
 Warmup Convergence Information,OPENOFFICE_MID_2 ZN,RunPeriod: SPAWN-RUNPERIOD,4.4425708377E-002,0.2947764538,Pass,Pass,0.0000000000,0.0000000000,Pass,Pass
 Warmup Convergence Information,OPENOFFICE_MID_3 ZN,RunPeriod: SPAWN-RUNPERIOD,5.8128353746E-002,0.2512798128,Pass,Pass,0.0000000000,0.0000000000,Pass,Pass
 Warmup Convergence Information,OPENOFFICE_MID_4 ZN,RunPeriod: SPAWN-RUNPERIOD,0.1577453175,0.2796660777,Pass,Pass,0.0000000000,0.0000000000,Pass,Pass
 Warmup Convergence Information,OPENOFFICE_TOP_1 ZN,RunPeriod: SPAWN-RUNPERIOD,3.5033647417E-002,2.1985788648E-002,Pass,Pass,0.0000000000,0.0000000000,Pass,Pass
 Warmup Convergence Information,OPENOFFICE_TOP_2 ZN,RunPeriod: SPAWN-RUNPERIOD,3.5117498763E-002,2.2178663800E-002,Pass,Pass,0.0000000000,0.0000000000,Pass,Pass
 Warmup Convergence Information,OPENOFFICE_TOP_3 ZN,RunPeriod: SPAWN-RUNPERIOD,4.5003276411E-002,3.8309613957E-002,Pass,Pass,0.0000000000,0.0000000000,Pass,Pass
 Warmup Convergence Information,OPENOFFICE_TOP_4 ZN,RunPeriod: SPAWN-RUNPERIOD,0.1441343655,0.1347132289,Pass,Pass,0.0000000000,0.0000000000,Pass,Pass
 Warmup Convergence Information,RESTROOM_BOT ZN,RunPeriod: SPAWN-RUNPERIOD,3.1312210366E-003,1.3638258820E-003,Pass,Pass,0.0000000000,0.0000000000,Pass,Pass
 Warmup Convergence Information,RESTROOM_MID ZN,RunPeriod: SPAWN-RUNPERIOD,6.6600905336E-002,0.3079121062,Pass,Pass,0.0000000000,0.0000000000,Pass,Pass
 Warmup Convergence Information,RESTROOM_TOP ZN,RunPeriod: SPAWN-RUNPERIOD,3.0810161791E-002,1.9180259378E-002,Pass,Pass,0.0000000000,0.0000000000,Pass,Pass
 Warmup Convergence Information,STAIR_BOT_1 ZN,RunPeriod: SPAWN-RUNPERIOD,3.5425682381E-003,1.3733872545E-003,Pass,Pass,0.0000000000,0.0000000000,Pass,Pass
 Warmup Convergence Information,STAIR_BOT_2 ZN,RunPeriod: SPAWN-RUNPERIOD,3.5312282514E-003,1.3705606602E-003,Pass,Pass,0.0000000000,0.0000000000,Pass,Pass
 Warmup Convergence Information,STAIR_MID_1 ZN,RunPeriod: SPAWN-RUNPERIOD,6.4808879622E-002,0.3214132413,Pass,Pass,0.0000000000,0.0000000000,Pass,Pass
 Warmup Convergence Information,STAIR_MID_2 ZN,RunPeriod: SPAWN-RUNPERIOD,6.6798648255E-002,0.3226073646,Pass,Pass,0.0000000000,0.0000000000,Pass,Pass
 Warmup Convergence Information,STAIR_TOP_1 ZN,RunPeriod: SPAWN-RUNPERIOD,2.9636898130E-002,1.7722469026E-002,Pass,Pass,0.0000000000,0.0000000000,Pass,Pass
 Warmup Convergence Information,STAIR_TOP_2 ZN,RunPeriod: SPAWN-RUNPERIOD,2.9640783998E-002,1.7720592487E-002,Pass,Pass,0.0000000000,0.0000000000,Pass,Pass
 Warmup Convergence Information,TOPFLOOR_PLENUM ZN,RunPeriod: SPAWN-RUNPERIOD,0.1217057155,0.1202525744,Pass,Pass,0.0000000000,0.0000000000,Pass,Pass
! <Program Control Information:Threads/Parallel Sims>, Threading Supported,Maximum Number of Threads, Env Set Threads (OMP_NUM_THREADS), EP Env Set Threads (EP_OMP_NUM_THREADS), IDF Set Threads, Number of Threads Used (Interior Radiant Exchange), Number Nominal Surfaces, Number Parallel Sims
Program Control:Threads/Parallel Sims, No,1, N/A, N/A, N/A, N/A, N/A, N/A
End of Data
